/home/yujie/leadopt/data/result/selection/sEH/lig_11e.sdf:1
                    3D
 Schrodinger Suite 2020-3.
 59 62  0  0  1  0            999 V2000
   -1.3129  -15.3329   25.6683 O   0  0  0  0  0  0
   -0.9470  -14.9168   26.7701 C   0  0  0  0  0  0
    0.2110  -13.9490   26.9043 C   0  0  0  0  0  0
    1.2156  -13.9206   25.9297 C   0  0  0  0  0  0
    2.2912  -13.0313   25.9807 C   0  0  0  0  0  0
    2.3393  -12.1415   27.0627 C   0  0  0  0  0  0
    3.2663  -11.1670   27.4103 N   0  0  0  0  0  0
    4.5142  -10.8682   26.7118 C   0  0  0  0  0  0
    5.6020  -11.9427   26.9712 C   0  0  0  0  0  0
    5.9333  -12.1329   28.4657 C   0  0  0  0  0  0
    6.8780  -11.6291   26.1697 C   0  0  0  0  0  0
    2.8625  -10.5641   28.5802 C   0  0  0  0  0  0
    1.6778  -11.1163   29.0091 C   0  0  0  0  0  0
    1.3291  -12.1340   28.0692 C   0  0  0  0  0  0
    0.2706  -13.0439   27.9751 C   0  0  0  0  0  0
   -1.6011  -15.2445   27.8972 N   0  0  0  0  0  0
   -2.8472  -16.0099   27.9777 C   0  0  0  0  0  0
   -2.7519  -17.5431   27.8842 C   0  0  0  0  0  0
   -3.8464  -18.3196   27.4465 C   0  0  0  0  0  0
   -5.1473  -17.6838   26.9375 C   0  0  0  0  0  0
   -5.6766  -16.9330   27.8972 F   0  0  0  0  0  0
   -4.9119  -16.9331   25.8605 F   0  0  0  0  0  0
   -6.0657  -18.5828   26.5907 F   0  0  0  0  0  0
   -3.7535  -19.7165   27.5028 C   0  0  0  0  0  0
   -2.6059  -20.3855   27.9332 C   0  0  0  0  0  0
   -2.7005  -21.7529   28.0082 N   0  5  0  0  0  0
   -1.5340  -22.7995   27.9785 S   0  0  0  0  0  0
   -1.4519  -23.2413   26.1302 C   0  0  0  0  0  0
   -0.6347  -24.4548   25.7659 C   0  0  0  0  0  0
   -2.1461  -24.5109   25.6783 C   0  0  0  0  0  0
   -0.2025  -22.2776   28.2973 O   0  0  0  0  0  0
   -1.9087  -24.0329   28.6767 O   0  0  0  0  0  0
   -1.5093  -19.5934   28.2975 C   0  0  0  0  0  0
   -1.5800  -18.1996   28.2808 C   0  0  0  0  0  0
    1.1721  -14.6096   25.0979 H   0  0  0  0  0  0
    3.0523  -13.0386   25.2161 H   0  0  0  0  0  0
    4.8600   -9.8801   27.0208 H   0  0  0  0  0  0
    4.2847  -10.7972   25.6471 H   0  0  0  0  0  0
    5.2231  -12.8971   26.6006 H   0  0  0  0  0  0
    6.2647  -11.2017   28.9265 H   0  0  0  0  0  0
    6.7260  -12.8692   28.6020 H   0  0  0  0  0  0
    5.0693  -12.4915   29.0267 H   0  0  0  0  0  0
    7.3314  -10.6902   26.4893 H   0  0  0  0  0  0
    7.6241  -12.4149   26.2909 H   0  0  0  0  0  0
    6.6661  -11.5498   25.1026 H   0  0  0  0  0  0
    3.4707   -9.7850   29.0183 H   0  0  0  0  0  0
    1.1335  -10.8357   29.8972 H   0  0  0  0  0  0
   -0.5047  -13.0244   28.7263 H   0  0  0  0  0  0
   -1.2384  -14.9327   28.8012 H   0  0  0  0  0  0
   -3.3024  -15.7769   28.9415 H   0  0  0  0  0  0
   -3.5209  -15.6129   27.2238 H   0  0  0  0  0  0
   -4.6043  -20.3160   27.2062 H   0  0  0  0  0  0
   -1.4223  -22.3550   25.4981 H   0  0  0  0  0  0
   -0.0433  -24.4255   24.8506 H   0  0  0  0  0  0
   -0.1293  -24.9796   26.5741 H   0  0  0  0  0  0
   -2.6963  -25.1003   26.4126 H   0  0  0  0  0  0
   -2.6233  -24.5331   24.6989 H   0  0  0  0  0  0
   -0.5969  -20.0313   28.6665 H   0  0  0  0  0  0
   -0.7232  -17.6339   28.6205 H   0  0  0  0  0  0
  1  2  2  0  0  0
  2  3  1  0  0  0
  2 16  1  0  0  0
  3 15  1  0  0  0
  3  4  2  0  0  0
  4  5  1  0  0  0
  4 35  1  0  0  0
  5  6  2  0  0  0
  5 36  1  0  0  0
  6  7  1  0  0  0
  6 14  1  0  0  0
  7  8  1  0  0  0
  7 12  1  0  0  0
  8  9  1  0  0  0
  8 37  1  0  0  0
  8 38  1  0  0  0
  9 10  1  0  0  0
  9 11  1  0  0  0
  9 39  1  0  0  0
 10 40  1  0  0  0
 10 41  1  0  0  0
 10 42  1  0  0  0
 11 43  1  0  0  0
 11 44  1  0  0  0
 11 45  1  0  0  0
 12 13  2  0  0  0
 12 46  1  0  0  0
 13 14  1  0  0  0
 13 47  1  0  0  0
 14 15  2  0  0  0
 15 48  1  0  0  0
 16 17  1  0  0  0
 16 49  1  0  0  0
 17 18  1  0  0  0
 17 50  1  0  0  0
 17 51  1  0  0  0
 18 34  1  0  0  0
 18 19  2  0  0  0
 19 20  1  0  0  0
 19 24  1  0  0  0
 20 21  1  0  0  0
 20 22  1  0  0  0
 20 23  1  0  0  0
 24 25  2  0  0  0
 24 52  1  0  0  0
 25 26  1  0  0  0
 25 33  1  0  0  0
 26 27  1  0  0  0
 27 28  1  0  0  0
 27 31  2  0  0  0
 27 32  2  0  0  0
 28 30  1  0  0  0
 28 29  1  0  0  0
 28 53  1  0  0  0
 29 30  1  0  0  0
 29 54  1  0  0  0
 29 55  1  0  0  0
 30 56  1  0  0  0
 30 57  1  0  0  0
 33 34  2  0  0  0
 33 58  1  0  0  0
 34 59  1  0  0  0
M  CHG  1  26  -1
M  END
> <s_m_source_file>
/home/yujie/leadopt/data/result/selection/sEH/lig_11e.sdf

> <i_m_source_file_index>
1

> <i_lp_mmshare_version>
51139

> <i_f3d_flags>
0

> <s_epik_input>
W0NIM11bQ0hdKFtDSDNdKVtDSDJdbjFbY0hdW2NIXWMoYzEyKVtjSF1jKFtjSF1bY0hdMilDKD1PKVtOSF1bQ0gyXWMzYyhDKEYpKEYpRilbY0hdYyhbY0hdW2NIXTMpW05IXVMoPU8pKD1PKVtDSF00W0NIMl1bQ0gyXTQ=

> <s_epik_cmdline>
J2VwaWtfcHl0aG9uJywgJy1waHQnLCAnMi4wJywgJy1waCcsICc3LjAnLCAnLXRuJywgJzgnLCAnLW1hJywgJzIwMCcsICctaW1hZScsICc8aW5maWxlLm1hZT4nLCAnLW9tYWUnLCAnPG91dGZpbGUubWFlPic=

> <r_epik_Ionization_Penalty>
  1.2618

> <r_epik_Ionization_Penalty_Charging>
  1.2618

> <r_epik_Ionization_Penalty_Neutral>
  0.0000

> <r_epik_State_Penalty>
  1.3325

> <r_epik_Charging_Adjusted_Penalty>
2.59425

> <i_epik_Tot_Q>
-1

> <i_epik_Tot_abs_Q>
1

> <s_lp_Force_Field>
OPLS3e

> <r_lp_Energy>
48.8596

> <b_lp_Chiralities_Consistent>
1

> <s_lp_Variant>
/home/yujie/leadopt/data/result/selection/sEH/lig_11e.sdf:1-2

> <s_i_glide_gridfile>
glide-grid_sEH

> <i_i_glide_lignum>
2

> <i_i_glide_rotatable_bonds>
10

> <r_i_docking_score>
-11.1798535753567

> <r_i_glide_ligand_efficiency>
-0.328819222804608

> <r_i_glide_ligand_efficiency_sa>
-1.06524663343255

> <r_i_glide_ligand_efficiency_ln>
-2.46994323906727

> <r_i_glide_gscore>
-12.5123235753567

> <r_i_glide_lipo>
-4.87418657335552

> <r_i_glide_hbond>
-0.72

> <r_i_glide_metal>
-0

> <r_i_glide_rewards>
-2.40971034865865

> <r_i_glide_evdw>
-55.1328506469727

> <r_i_glide_ecoul>
-14.8225049972534

> <r_i_glide_erotb>
0.671591628594145

> <r_i_glide_esite>
-0.2

> <r_i_glide_emodel>
-120.223671719823

> <r_i_glide_energy>
-69.9553556442261

> <r_i_glide_einternal>
10.2165575027466

> <i_i_glide_confnum>
195

> <i_i_glide_posenum>
9

> <r_i_glide_eff_state_penalty>
1.33247

$$$$
