/home/yujie/leadopt/data/result/selection/sEH/lig_7c.sdf:1
                    3D
 Schrodinger Suite 2020-3.
 49 52  0  0  1  0            999 V2000
   -1.3290  -15.3329   25.6957 O   0  0  0  0  0  0
   -1.0131  -14.8174   26.7689 C   0  0  0  0  0  0
    0.0830  -13.7737   26.8287 C   0  0  0  0  0  0
    0.8749  -13.5560   25.6888 C   0  0  0  0  0  0
    1.8302  -12.5431   25.6137 C   0  0  0  0  0  0
    1.9615  -11.7211   26.7348 C   0  0  0  0  0  0
    2.7535  -10.5971   26.9682 N   0  0  0  0  0  0
    3.7569  -10.0343   26.0702 C   0  0  0  0  0  0
    5.1452  -10.6656   26.1748 C   0  0  0  0  0  0
    5.4881  -11.5455   27.2130 C   0  0  0  0  0  0
    6.7669  -12.0877   27.2894 C   0  0  0  0  0  0
    7.0710  -12.9329   28.2972 F   0  0  0  0  0  0
    7.7228  -11.7591   26.3302 C   0  0  0  0  0  0
    7.3967  -10.8824   25.2951 C   0  0  0  0  0  0
    6.1136  -10.3373   25.2195 C   0  0  0  0  0  0
    2.5160  -10.1668   28.2492 C   0  0  0  0  0  0
    1.5786  -10.9839   28.8245 N   0  3  0  0  0  0
    1.2046  -11.9479   27.8997 C   0  0  0  0  0  0
    0.2710  -12.9807   27.9768 C   0  0  0  0  0  0
   -1.6894  -15.0857   27.8972 N   0  0  0  0  0  0
   -2.8599  -15.9614   28.0004 C   0  0  0  0  0  0
   -2.5756  -17.4701   28.0682 C   0  0  0  0  0  0
   -3.5334  -18.4224   27.6465 C   0  0  0  0  0  0
   -4.8933  -18.0060   27.0652 C   0  0  0  0  0  0
   -5.5163  -17.1750   27.8972 F   0  0  0  0  0  0
   -4.7187  -17.3916   25.8952 F   0  0  0  0  0  0
   -5.7035  -19.0451   26.8600 F   0  0  0  0  0  0
   -3.2377  -19.7886   27.7754 C   0  0  0  0  0  0
   -2.0191  -20.2134   28.2972 C   0  0  0  0  0  0
   -1.0729  -19.2769   28.6972 C   0  0  0  0  0  0
   -1.3440  -17.9171   28.5719 C   0  0  0  0  0  0
    0.7352  -14.1690   24.8086 H   0  0  0  0  0  0
    2.4076  -12.3871   24.7137 H   0  0  0  0  0  0
    3.3871  -10.1358   25.0481 H   0  0  0  0  0  0
    3.8307   -8.9634   26.2603 H   0  0  0  0  0  0
    4.7770  -11.8246   27.9754 H   0  0  0  0  0  0
    8.7122  -12.1856   26.3907 H   0  0  0  0  0  0
    8.1374  -10.6254   24.5517 H   0  0  0  0  0  0
    5.8757   -9.6577   24.4132 H   0  0  0  0  0  0
    3.0169   -9.3329   28.7173 H   0  0  0  0  0  0
   -0.3217  -13.1141   28.8709 H   0  0  0  0  0  0
   -1.3290  -14.7670   28.7998 H   0  0  0  0  0  0
   -3.5250  -15.7329   27.1686 H   0  0  0  0  0  0
   -3.3971  -15.6843   28.9097 H   0  0  0  0  0  0
   -3.9508  -20.5393   27.4659 H   0  0  0  0  0  0
   -1.8061  -21.2685   28.3888 H   0  0  0  0  0  0
   -0.1290  -19.6067   29.1078 H   0  0  0  0  0  0
   -0.5968  -17.2107   28.9049 H   0  0  0  0  0  0
    1.2391  -10.8716   29.7698 H   0  0  0  0  0  0
  1  2  2  0  0  0
  2  3  1  0  0  0
  2 20  1  0  0  0
  3 19  1  0  0  0
  3  4  2  0  0  0
  4  5  1  0  0  0
  4 32  1  0  0  0
  5  6  2  0  0  0
  5 33  1  0  0  0
  6  7  1  0  0  0
  6 18  1  0  0  0
  7  8  1  0  0  0
  7 16  1  0  0  0
  8  9  1  0  0  0
  8 34  1  0  0  0
  8 35  1  0  0  0
  9 15  1  0  0  0
  9 10  2  0  0  0
 10 11  1  0  0  0
 10 36  1  0  0  0
 11 12  1  0  0  0
 11 13  2  0  0  0
 13 14  1  0  0  0
 13 37  1  0  0  0
 14 15  2  0  0  0
 14 38  1  0  0  0
 15 39  1  0  0  0
 16 17  2  0  0  0
 16 40  1  0  0  0
 17 18  1  0  0  0
 17 49  1  0  0  0
 18 19  2  0  0  0
 19 41  1  0  0  0
 20 21  1  0  0  0
 20 42  1  0  0  0
 21 22  1  0  0  0
 21 43  1  0  0  0
 21 44  1  0  0  0
 22 31  1  0  0  0
 22 23  2  0  0  0
 23 24  1  0  0  0
 23 28  1  0  0  0
 24 25  1  0  0  0
 24 26  1  0  0  0
 24 27  1  0  0  0
 28 29  2  0  0  0
 28 45  1  0  0  0
 29 30  1  0  0  0
 29 46  1  0  0  0
 30 31  2  0  0  0
 30 47  1  0  0  0
 31 48  1  0  0  0
M  CHG  1  17   1
M  END
> <s_m_source_file>
/home/yujie/leadopt/data/result/selection/sEH/lig_7c.sdf

> <i_m_source_file_index>
1

> <i_lp_mmshare_version>
51139

> <i_f3d_flags>
0

> <s_epik_input>
W2NIXTFbY0hdW2NIXVtjSF1jKEMoRikoRilGKWMxW0NIMl1bTkhdQyg9TyljKFtjSF1bY0hdMilbY0hdYyhjMjMpbltjSF1uM1tDSDJdYzRbY0hdYyhGKVtjSF1bY0hdW2NIXTQ=

> <s_epik_cmdline>
J2VwaWtfcHl0aG9uJywgJy1waHQnLCAnMi4wJywgJy1waCcsICc3LjAnLCAnLXRuJywgJzgnLCAnLW1hJywgJzIwMCcsICctaW1hZScsICc8aW5maWxlLm1hZT4nLCAnLW9tYWUnLCAnPG91dGZpbGUubWFlPic=

> <r_epik_Ionization_Penalty>
  2.2649

> <r_epik_Ionization_Penalty_Charging>
  2.2649

> <r_epik_Ionization_Penalty_Neutral>
  0.0000

> <r_epik_State_Penalty>
  2.4130

> <r_epik_Charging_Adjusted_Penalty>
4.6779

> <i_epik_Tot_Q>
1

> <i_epik_Tot_abs_Q>
1

> <s_lp_Force_Field>
OPLS3e

> <r_lp_Energy>
45.1362

> <b_lp_Chiralities_Consistent>
1

> <s_lp_Variant>
/home/yujie/leadopt/data/result/selection/sEH/lig_7c.sdf:1-2

> <s_i_glide_gridfile>
glide-grid_sEH

> <i_i_glide_lignum>
2

> <i_i_glide_rotatable_bonds>
7

> <r_i_docking_score>
-9.28097365789602

> <r_i_glide_ligand_efficiency>
-0.299386247028904

> <r_i_glide_ligand_efficiency_sa>
-0.940486162932129

> <r_i_glide_ligand_efficiency_ln>
-2.09314398753969

> <r_i_glide_gscore>
-11.693983657896

> <r_i_glide_lipo>
-4.15166159002844

> <r_i_glide_hbond>
-0.72

> <r_i_glide_metal>
-0

> <r_i_glide_rewards>
-3.18816526551597

> <r_i_glide_evdw>
-45.7247848510742

> <r_i_glide_ecoul>
-11.982006072998

> <r_i_glide_erotb>
0.649383351151816

> <r_i_glide_esite>
-0.2

> <r_i_glide_emodel>
-104.729352145812

> <r_i_glide_energy>
-57.7067909240723

> <r_i_glide_einternal>
4.19163036346436

> <i_i_glide_confnum>
28

> <i_i_glide_posenum>
144

> <r_i_glide_eff_state_penalty>
2.41301

$$$$
