/home/yujie/leadopt/data/result/selection/sEH/lig_8a.sdf:1
                    3D
 Schrodinger Suite 2020-3.
 51 54  0  0  1  0            999 V2000
   -2.3202  -14.3336   27.8972 O   0  0  0  0  0  0
   -1.3290  -14.7313   27.2926 C   0  0  0  0  0  0
   -0.1109  -13.8438   27.1816 C   0  0  0  0  0  0
    0.6897  -13.8288   26.0313 C   0  0  0  0  0  0
    1.7037  -12.8871   25.8404 C   0  0  0  0  0  0
    1.9052  -11.9431   26.8576 C   0  0  0  0  0  0
    2.7566  -10.8491   26.9461 N   0  0  0  0  0  0
    3.7456  -10.4330   25.9561 C   0  0  0  0  0  0
    5.1384  -11.0371   26.1262 C   0  0  0  0  0  0
    5.4392  -11.9346   27.1606 C   0  0  0  0  0  0
    6.7226  -12.4516   27.2958 C   0  0  0  0  0  0
    6.9875  -13.3156   28.2972 F   0  0  0  0  0  0
    7.7240  -12.0837   26.3993 C   0  0  0  0  0  0
    7.4371  -11.1934   25.3646 C   0  0  0  0  0  0
    6.1488  -10.6728   25.2295 C   0  0  0  0  0  0
    2.6197  -10.2726   28.1887 C   0  0  0  0  0  0
    1.6513  -10.9327   28.9077 C   0  0  0  0  0  0
    1.1555  -11.9771   28.0695 C   0  0  0  0  0  0
    0.1486  -12.9330   28.2116 C   0  0  0  0  0  0
   -1.3290  -15.9077   26.6422 N   0  0  0  0  0  0
   -2.5453  -16.7088   26.4180 C   0  0  0  0  0  0
   -2.6967  -18.0376   27.1631 C   0  0  0  0  0  0
   -3.9045  -18.7776   27.0972 C   0  0  0  0  0  0
   -5.1688  -18.3145   26.3436 C   0  0  0  0  0  0
   -6.0404  -17.8304   27.2276 F   0  0  0  0  0  0
   -4.9777  -17.3864   25.4063 F   0  0  0  0  0  0
   -5.7290  -19.3566   25.7284 F   0  0  0  0  0  0
   -3.9597  -20.0376   27.7118 C   0  0  0  0  0  0
   -2.8576  -20.5677   28.3729 C   0  0  0  0  0  0
   -2.9289  -21.8422   28.9297 N   0  0  0  0  0  0
   -1.6881  -19.8222   28.4707 C   0  0  0  0  0  0
   -1.6196  -18.5557   27.8972 C   0  0  0  0  0  0
    0.4996  -14.5229   25.2268 H   0  0  0  0  0  0
    2.2768  -12.8708   24.9251 H   0  0  0  0  0  0
    3.3617  -10.6815   24.9654 H   0  0  0  0  0  0
    3.8169   -9.3446   25.9901 H   0  0  0  0  0  0
    4.6900  -12.2435   27.8739 H   0  0  0  0  0  0
    8.7173  -12.4916   26.5076 H   0  0  0  0  0  0
    8.2114  -10.9072   24.6680 H   0  0  0  0  0  0
    5.9383   -9.9824   24.4251 H   0  0  0  0  0  0
    3.2381   -9.4278   28.4572 H   0  0  0  0  0  0
    1.3270  -10.6841   29.9062 H   0  0  0  0  0  0
   -0.4693  -12.9329   29.0972 H   0  0  0  0  0  0
   -0.4413  -16.3137   26.3922 H   0  0  0  0  0  0
   -2.5840  -16.9329   25.3532 H   0  0  0  0  0  0
   -3.4368  -16.1209   26.6452 H   0  0  0  0  0  0
   -4.8675  -20.6215   27.6568 H   0  0  0  0  0  0
   -2.0534  -22.2954   29.1477 H   0  0  0  0  0  0
   -3.7284  -22.4085   28.6858 H   0  0  0  0  0  0
   -0.8259  -20.2120   28.9946 H   0  0  0  0  0  0
   -0.6948  -18.0056   27.9896 H   0  0  0  0  0  0
  1  2  2  0  0  0
  2  3  1  0  0  0
  2 20  1  0  0  0
  3 19  1  0  0  0
  3  4  2  0  0  0
  4  5  1  0  0  0
  4 33  1  0  0  0
  5  6  2  0  0  0
  5 34  1  0  0  0
  6  7  1  0  0  0
  6 18  1  0  0  0
  7  8  1  0  0  0
  7 16  1  0  0  0
  8  9  1  0  0  0
  8 35  1  0  0  0
  8 36  1  0  0  0
  9 15  1  0  0  0
  9 10  2  0  0  0
 10 11  1  0  0  0
 10 37  1  0  0  0
 11 12  1  0  0  0
 11 13  2  0  0  0
 13 14  1  0  0  0
 13 38  1  0  0  0
 14 15  2  0  0  0
 14 39  1  0  0  0
 15 40  1  0  0  0
 16 17  2  0  0  0
 16 41  1  0  0  0
 17 18  1  0  0  0
 17 42  1  0  0  0
 18 19  2  0  0  0
 19 43  1  0  0  0
 20 21  1  0  0  0
 20 44  1  0  0  0
 21 22  1  0  0  0
 21 45  1  0  0  0
 21 46  1  0  0  0
 22 32  1  0  0  0
 22 23  2  0  0  0
 23 24  1  0  0  0
 23 28  1  0  0  0
 24 25  1  0  0  0
 24 26  1  0  0  0
 24 27  1  0  0  0
 28 29  2  0  0  0
 28 47  1  0  0  0
 29 30  1  0  0  0
 29 31  1  0  0  0
 30 48  1  0  0  0
 30 49  1  0  0  0
 31 32  2  0  0  0
 31 50  1  0  0  0
 32 51  1  0  0  0
M  END
> <s_m_source_file>
/home/yujie/leadopt/data/result/selection/sEH/lig_8a.sdf

> <i_m_source_file_index>
1

> <i_lp_mmshare_version>
51139

> <i_f3d_flags>
0

> <s_epik_input>
W2NIXTFbY0hdYyhbTkgyXSlbY0hdYyhDKEYpKEYpRiljMVtDSDJdW05IXUMoPU8pYyhbY0hdW2NIXTIpW2NIXWMoYzIzKVtjSF1bY0hdbjNbQ0gyXWM0W2NIXWMoRilbY0hdW2NIXVtjSF00

> <s_epik_cmdline>
J2VwaWtfcHl0aG9uJywgJy1waHQnLCAnMi4wJywgJy1waCcsICc3LjAnLCAnLXRuJywgJzgnLCAnLW1hJywgJzIwMCcsICctaW1hZScsICc8aW5maWxlLm1hZT4nLCAnLW9tYWUnLCAnPG91dGZpbGUubWFlPic=

> <r_lp_tautomer_probability>
1

> <r_epik_Ionization_Penalty>
  0.0001

> <r_epik_Ionization_Penalty_Charging>
  0.0000

> <r_epik_Ionization_Penalty_Neutral>
  0.0001

> <r_epik_State_Penalty>
 -0.0000

> <r_epik_Charging_Adjusted_Penalty>
0

> <i_epik_Tot_Q>
0

> <i_epik_Tot_abs_Q>
0

> <s_lp_Force_Field>
OPLS3e

> <r_lp_Energy>
38.8451

> <b_lp_Chiralities_Consistent>
1

> <s_lp_Variant>
/home/yujie/leadopt/data/result/selection/sEH/lig_8a.sdf:1-1

> <s_i_glide_gridfile>
glide-grid_sEH

> <i_i_glide_lignum>
1

> <i_i_glide_rotatable_bonds>
7

> <r_i_docking_score>
-9.04250366169542

> <r_i_glide_ligand_efficiency>
-0.282578239427982

> <r_i_glide_ligand_efficiency_sa>
-0.897129988026195

> <r_i_glide_ligand_efficiency_ln>
-2.02486305919397

> <r_i_glide_gscore>
-9.04250366169542

> <r_i_glide_lipo>
-4.62504995942498

> <r_i_glide_hbond>
-0.00386126482005752

> <r_i_glide_metal>
-0

> <r_i_glide_rewards>
-2.71438053934058

> <r_i_glide_evdw>
-51.1975326538086

> <r_i_glide_ecoul>
2.92304635047913

> <r_i_glide_erotb>
0.615077237302536

> <r_i_glide_esite>
-0.192869455293775

> <r_i_glide_emodel>
-79.4279555216503

> <r_i_glide_energy>
-48.2744863033295

> <r_i_glide_einternal>
11.9984741210938

> <i_i_glide_confnum>
43

> <i_i_glide_posenum>
268

> <r_i_glide_eff_state_penalty>
-0

$$$$
