/home/yujie/leadopt/data/result/selection/sEH/lig_6k.sdf:1
                    3D
 Schrodinger Suite 2020-3.
 49 52  0  0  1  0            999 V2000
   -1.7292  -15.8167   25.8813 O   0  0  0  0  0  0
   -1.3289  -15.2084   26.8670 C   0  0  0  0  0  0
   -0.2519  -14.1590   26.7360 C   0  0  0  0  0  0
    0.4019  -13.9515   25.5019 C   0  0  0  0  0  0
    1.3612  -12.9482   25.3458 C   0  0  0  0  0  0
    1.6670  -12.1592   26.4479 C   0  0  0  0  0  0
    2.5047  -11.0836   26.6171 N   0  0  0  0  0  0
    3.3925  -10.4831   25.6152 C   0  0  0  0  0  0
    4.7655  -11.1339   25.4798 C   0  0  0  0  0  0
    5.5084  -11.5070   26.6070 C   0  0  0  0  0  0
    6.7735  -12.0764   26.4689 C   0  0  0  0  0  0
    7.6384  -12.5287   27.8957 Cl  0  0  0  0  0  0
    7.3144  -12.2666   25.1907 C   0  0  0  0  0  0
    8.8952  -12.9325   24.9724 Cl  0  0  0  0  0  0
    6.5736  -11.9035   24.0648 C   0  0  0  0  0  0
    5.3045  -11.3426   24.2074 C   0  0  0  0  0  0
    2.4422  -10.6413   27.8977 C   0  0  0  0  0  0
    1.5374  -11.4202   28.5095 N   0  0  0  0  0  0
    3.0711   -9.7329   28.4085 O   0  0  0  0  0  0
    1.0502  -12.3575   27.6486 C   0  0  0  0  0  0
    0.0856  -13.3330   27.8197 C   0  0  0  0  0  0
   -1.8635  -15.3984   28.0789 N   0  0  0  0  0  0
   -2.9922  -16.2637   28.3920 C   0  0  0  0  0  0
   -2.7635  -17.7642   28.1613 C   0  0  0  0  0  0
   -3.7405  -18.5858   27.5618 C   0  0  0  0  0  0
   -5.0195  -17.9981   26.9555 C   0  0  0  0  0  0
   -4.7145  -17.1225   25.9959 F   0  0  0  0  0  0
   -5.7859  -18.9342   26.4012 F   0  0  0  0  0  0
   -5.7304  -17.3801   27.8970 F   0  0  0  0  0  0
   -3.5172  -19.9701   27.4968 C   0  0  0  0  0  0
   -2.3188  -20.5259   27.9351 C   0  0  0  0  0  0
   -1.3293  -19.7044   28.4622 C   0  0  0  0  0  0
   -1.5514  -18.3340   28.5755 C   0  0  0  0  0  0
    0.1517  -14.5329   24.6299 H   0  0  0  0  0  0
    1.8314  -12.7904   24.3859 H   0  0  0  0  0  0
    2.8830  -10.5249   24.6517 H   0  0  0  0  0  0
    3.5316   -9.4219   25.8294 H   0  0  0  0  0  0
    5.1167  -11.3479   27.6006 H   0  0  0  0  0  0
    6.9865  -12.0501   23.0774 H   0  0  0  0  0  0
    4.7485  -11.0595   23.3247 H   0  0  0  0  0  0
    1.2708  -11.3208   29.4775 H   0  0  0  0  0  0
   -0.4190  -13.4004   28.7663 H   0  0  0  0  0  0
   -1.4457  -14.9330   28.8885 H   0  0  0  0  0  0
   -3.8554  -15.8625   27.8639 H   0  0  0  0  0  0
   -3.2171  -16.1264   29.4508 H   0  0  0  0  0  0
   -4.2565  -20.6285   27.0632 H   0  0  0  0  0  0
   -2.1532  -21.5906   27.8561 H   0  0  0  0  0  0
   -0.3939  -20.1299   28.8012 H   0  0  0  0  0  0
   -0.7835  -17.7152   29.0178 H   0  0  0  0  0  0
  1  2  2  0  0  0
  2  3  1  0  0  0
  2 22  1  0  0  0
  3 21  1  0  0  0
  3  4  2  0  0  0
  4  5  1  0  0  0
  4 34  1  0  0  0
  5  6  2  0  0  0
  5 35  1  0  0  0
  6  7  1  0  0  0
  6 20  1  0  0  0
  7  8  1  0  0  0
  7 17  1  0  0  0
  8  9  1  0  0  0
  8 36  1  0  0  0
  8 37  1  0  0  0
  9 16  1  0  0  0
  9 10  2  0  0  0
 10 11  1  0  0  0
 10 38  1  0  0  0
 11 12  1  0  0  0
 11 13  2  0  0  0
 13 14  1  0  0  0
 13 15  1  0  0  0
 15 16  2  0  0  0
 15 39  1  0  0  0
 16 40  1  0  0  0
 17 18  1  0  0  0
 17 19  2  0  0  0
 18 20  1  0  0  0
 18 41  1  0  0  0
 20 21  2  0  0  0
 21 42  1  0  0  0
 22 23  1  0  0  0
 22 43  1  0  0  0
 23 24  1  0  0  0
 23 44  1  0  0  0
 23 45  1  0  0  0
 24 33  1  0  0  0
 24 25  2  0  0  0
 25 26  1  0  0  0
 25 30  1  0  0  0
 26 27  1  0  0  0
 26 28  1  0  0  0
 26 29  1  0  0  0
 30 31  2  0  0  0
 30 46  1  0  0  0
 31 32  1  0  0  0
 31 47  1  0  0  0
 32 33  2  0  0  0
 32 48  1  0  0  0
 33 49  1  0  0  0
M  END
> <s_m_source_file>
/home/yujie/leadopt/data/result/selection/sEH/lig_6k.sdf

> <i_m_source_file_index>
1

> <i_lp_mmshare_version>
51139

> <i_f3d_flags>
0

> <s_epik_input>
W2NIXTFbY0hdW2NIXVtjSF1jKEMoRikoRilGKWMxW0NIMl1bTkhdQyg9TyljKFtjSF1bY0hdMilbY0hdYyhjMjMpW25IXWMoPU8pbjNbQ0gyXWM0W2NIXWMoQ2wpYyhDbClbY0hdW2NIXTQ=

> <s_epik_cmdline>
J2VwaWtfcHl0aG9uJywgJy1waHQnLCAnMi4wJywgJy1waCcsICc3LjAnLCAnLXRuJywgJzgnLCAnLW1hJywgJzIwMCcsICctaW1hZScsICc8aW5maWxlLm1hZT4nLCAnLW9tYWUnLCAnPG91dGZpbGUubWFlPic=

> <r_lp_tautomer_probability>
1

> <r_epik_Ionization_Penalty>
  0.0000

> <r_epik_Ionization_Penalty_Charging>
  0.0000

> <r_epik_Ionization_Penalty_Neutral>
  0.0000

> <r_epik_State_Penalty>
 -0.0000

> <r_epik_Charging_Adjusted_Penalty>
2.36287e-05

> <i_epik_Tot_Q>
0

> <i_epik_Tot_abs_Q>
0

> <s_lp_Force_Field>
OPLS3e

> <r_lp_Energy>
35.9721

> <b_lp_Chiralities_Consistent>
1

> <s_lp_Variant>
/home/yujie/leadopt/data/result/selection/sEH/lig_6k.sdf:1-1

> <s_i_glide_gridfile>
glide-grid_sEH

> <i_i_glide_lignum>
1

> <i_i_glide_rotatable_bonds>
7

> <r_i_docking_score>
-10.8557495714547

> <r_i_glide_ligand_efficiency>
-0.328962108225899

> <r_i_glide_ligand_efficiency_sa>
-1.05515725417258

> <r_i_glide_ligand_efficiency_ln>
-2.41426249662842

> <r_i_glide_gscore>
-10.8557495714547

> <r_i_glide_lipo>
-3.83970936208261

> <r_i_glide_hbond>
-0.72

> <r_i_glide_metal>
-0

> <r_i_glide_rewards>
-2.57807816948851

> <r_i_glide_evdw>
-47.6815757751465

> <r_i_glide_ecoul>
-10.8953409194946

> <r_i_glide_erotb>
0.500417886797983

> <r_i_glide_esite>
-0.2

> <r_i_glide_emodel>
-97.4645639664772

> <r_i_glide_energy>
-58.5769166946411

> <r_i_glide_einternal>
2.76394295692444

> <i_i_glide_confnum>
6

> <i_i_glide_posenum>
279

> <r_i_glide_eff_state_penalty>
-0

$$$$
