/home/yujie/leadopt/data/result/selection/sEH/lig_10c.sdf:1
                    3D
 Schrodinger Suite 2020-3.
 56 59  0  0  1  0            999 V2000
   -2.2607  -14.1302   27.8962 O   0  0  0  0  0  0
   -1.2689  -14.7669   27.5440 C   0  0  0  0  0  0
    0.0056  -14.0356   27.2029 C   0  0  0  0  0  0
    0.9007  -14.5265   26.2540 C   0  0  0  0  0  0
    2.0699  -13.8585   25.9022 C   0  0  0  0  0  0
    2.3507  -12.6523   26.5610 C   0  0  0  0  0  0
    3.4380  -11.7839   26.4524 N   0  0  0  0  0  0
    4.5711  -11.8770   25.5763 C   0  0  0  0  0  0
    5.8150  -11.0638   25.8479 C   0  0  0  0  0  0
    6.3011  -10.8852   27.1526 C   0  0  0  0  0  0
    7.4516  -10.1342   27.3829 C   0  0  0  0  0  0
    7.8711   -9.9269   28.6496 F   0  0  0  0  0  0
    8.1489   -9.5780   26.3112 C   0  0  0  0  0  0
    7.6942   -9.7729   25.0078 C   0  0  0  0  0  0
    6.5348  -10.5139   24.7774 C   0  0  0  0  0  0
    4.5445  -12.6410   24.6081 O   0  0  0  0  0  0
    3.1982  -10.7263   27.3180 C   0  0  0  0  0  0
    2.0303  -10.9110   28.0195 C   0  0  0  0  0  0
    1.4629  -12.1299   27.5509 C   0  0  0  0  0  0
    0.2920  -12.8337   27.8595 C   0  0  0  0  0  0
   -1.2264  -16.1126   27.6044 N   0  0  0  0  0  0
   -2.2624  -16.8602   28.3309 C   0  0  0  0  0  0
   -2.2165  -18.3791   28.1536 C   0  0  0  0  0  0
   -3.2603  -19.1175   27.5501 C   0  0  0  0  0  0
   -4.4971  -18.4345   26.9381 C   0  0  0  0  0  0
   -5.2202  -17.8590   27.8969 F   0  0  0  0  0  0
   -4.1273  -17.4978   26.0626 F   0  0  0  0  0  0
   -5.2972  -19.2920   26.2992 F   0  0  0  0  0  0
   -3.1520  -20.5186   27.4974 C   0  0  0  0  0  0
   -2.0433  -21.1904   28.0198 C   0  0  0  0  0  0
   -1.9714  -22.5844   27.8678 N   0  0  0  0  0  0
   -1.2100  -23.6587   29.0582 S   0  0  0  0  0  0
   -1.4226  -25.3439   28.2595 C   0  0  0  0  0  0
   -2.0303  -23.6073   30.2723 O   0  0  0  0  0  0
    0.2189  -23.3339   29.0951 O   0  0  0  0  0  0
   -1.0298  -20.4477   28.6286 C   0  0  0  0  0  0
   -1.1207  -19.0596   28.6965 C   0  0  0  0  0  0
    0.6944  -15.4525   25.7576 H   0  0  0  0  0  0
    2.7336  -14.2773   25.1608 H   0  0  0  0  0  0
    5.7935  -11.3184   28.0030 H   0  0  0  0  0  0
    9.0363   -8.9909   26.4906 H   0  0  0  0  0  0
    8.2366   -9.3463   24.1765 H   0  0  0  0  0  0
    6.1963  -10.6536   23.7592 H   0  0  0  0  0  0
    3.8847   -9.8925   27.3741 H   0  0  0  0  0  0
    1.6212  -10.2375   28.7586 H   0  0  0  0  0  0
   -0.3898  -12.4456   28.6054 H   0  0  0  0  0  0
   -0.3253  -16.5547   27.5127 H   0  0  0  0  0  0
   -3.2525  -16.4542   28.1239 H   0  0  0  0  0  0
   -2.1096  -16.6567   29.3930 H   0  0  0  0  0  0
   -3.9326  -21.0986   27.0262 H   0  0  0  0  0  0
   -2.7764  -22.9910   27.4179 H   0  0  0  0  0  0
   -0.9464  -26.0886   28.8969 H   0  0  0  0  0  0
   -0.9458  -25.3288   27.2810 H   0  0  0  0  0  0
   -2.4853  -25.5591   28.1622 H   0  0  0  0  0  0
   -0.1506  -20.9231   29.0389 H   0  0  0  0  0  0
   -0.3226  -18.5106   29.1771 H   0  0  0  0  0  0
  1  2  2  0  0  0
  2  3  1  0  0  0
  2 21  1  0  0  0
  3 20  1  0  0  0
  3  4  2  0  0  0
  4  5  1  0  0  0
  4 38  1  0  0  0
  5  6  2  0  0  0
  5 39  1  0  0  0
  6  7  1  0  0  0
  6 19  1  0  0  0
  7  8  1  0  0  0
  7 17  1  0  0  0
  8  9  1  0  0  0
  8 16  2  0  0  0
  9 15  1  0  0  0
  9 10  2  0  0  0
 10 11  1  0  0  0
 10 40  1  0  0  0
 11 12  1  0  0  0
 11 13  2  0  0  0
 13 14  1  0  0  0
 13 41  1  0  0  0
 14 15  2  0  0  0
 14 42  1  0  0  0
 15 43  1  0  0  0
 17 18  2  0  0  0
 17 44  1  0  0  0
 18 19  1  0  0  0
 18 45  1  0  0  0
 19 20  2  0  0  0
 20 46  1  0  0  0
 21 22  1  0  0  0
 21 47  1  0  0  0
 22 23  1  0  0  0
 22 48  1  0  0  0
 22 49  1  0  0  0
 23 37  1  0  0  0
 23 24  2  0  0  0
 24 25  1  0  0  0
 24 29  1  0  0  0
 25 26  1  0  0  0
 25 27  1  0  0  0
 25 28  1  0  0  0
 29 30  2  0  0  0
 29 50  1  0  0  0
 30 31  1  0  0  0
 30 36  1  0  0  0
 31 32  1  0  0  0
 31 51  1  0  0  0
 32 33  1  0  0  0
 32 34  2  0  0  0
 32 35  2  0  0  0
 33 52  1  0  0  0
 33 53  1  0  0  0
 33 54  1  0  0  0
 36 37  2  0  0  0
 36 55  1  0  0  0
 37 56  1  0  0  0
M  END
> <s_m_source_file>
/home/yujie/leadopt/data/result/selection/sEH/lig_10c.sdf

> <i_m_source_file_index>
1

> <i_lp_mmshare_version>
51139

> <i_f3d_flags>
0

> <s_epik_input>
W0NIM11TKD1PKSg9TylbTkhdYyhbY0hdW2NIXTEpW2NIXWMoQyhGKShGKUYpYzFbQ0gyXVtOSF1DKD1PKWMoW2NIXVtjSF0yKVtjSF1jKGMyMylbY0hdW2NIXW4zQyg9TyljNFtjSF1jKEYpW2NIXVtjSF1bY0hdNA==

> <s_epik_cmdline>
J2VwaWtfcHl0aG9uJywgJy1waHQnLCAnMi4wJywgJy1waCcsICc3LjAnLCAnLXRuJywgJzgnLCAnLW1hJywgJzIwMCcsICctaW1hZScsICc8aW5maWxlLm1hZT4nLCAnLW9tYWUnLCAnPG91dGZpbGUubWFlPic=

> <r_epik_Ionization_Penalty>
  0.0999

> <r_epik_Ionization_Penalty_Charging>
  0.0000

> <r_epik_Ionization_Penalty_Neutral>
  0.0999

> <r_epik_State_Penalty>
  0.0900

> <r_epik_Charging_Adjusted_Penalty>
0.0899504

> <i_epik_Tot_Q>
0

> <i_epik_Tot_abs_Q>
0

> <s_lp_Force_Field>
OPLS3e

> <r_lp_Energy>
42.9159

> <b_lp_Chiralities_Consistent>
1

> <s_lp_Variant>
/home/yujie/leadopt/data/result/selection/sEH/lig_10c.sdf:1-1

> <s_i_glide_gridfile>
glide-grid_sEH

> <i_i_glide_lignum>
1

> <i_i_glide_rotatable_bonds>
9

> <r_i_docking_score>
-10.102664113092

> <r_i_glide_ligand_efficiency>
-0.273044976029515

> <r_i_glide_ligand_efficiency_sa>
-0.909846434512567

> <r_i_glide_ligand_efficiency_ln>
-2.19103100607976

> <r_i_glide_gscore>
-10.192614513092

> <r_i_glide_lipo>
-4.31922329419206

> <r_i_glide_hbond>
-0.000573520174330762

> <r_i_glide_metal>
-0

> <r_i_glide_rewards>
-2.69149187501583

> <r_i_glide_evdw>
-55.1287384033203

> <r_i_glide_ecoul>
-4.9786262512207

> <r_i_glide_erotb>
0.507445694091831

> <r_i_glide_esite>
-0.185540659952534

> <r_i_glide_emodel>
-99.8340963219566

> <r_i_glide_energy>
-60.107364654541

> <r_i_glide_einternal>
13.5418977737427

> <i_i_glide_confnum>
75

> <i_i_glide_posenum>
88

> <r_i_glide_eff_state_penalty>
0.0899504

$$$$
