/home/yujie/leadopt/data/result/selection/sEH/lig_10d.sdf:1
                    3D
 Schrodinger Suite 2020-3.
 56 59  0  0  1  0            999 V2000
   -1.6191  -15.7450   25.8772 O   0  0  0  0  0  0
   -1.3284  -15.1408   26.9022 C   0  0  0  0  0  0
   -0.2219  -14.1063   26.8819 C   0  0  0  0  0  0
    0.5367  -13.9395   25.7143 C   0  0  0  0  0  0
    1.5266  -12.9773   25.5779 C   0  0  0  0  0  0
    1.7314  -12.1168   26.6569 C   0  0  0  0  0  0
    2.5387  -11.0017   26.7968 N   0  0  0  0  0  0
    3.6872  -10.3803   25.6797 S   0  0  0  0  0  0
    5.2659  -11.0101   26.2363 C   0  0  0  0  0  0
    6.0622  -11.7677   25.3713 C   0  0  0  0  0  0
    7.3004  -12.2392   25.8029 C   0  0  0  0  0  0
    8.0895  -12.9337   24.9541 F   0  0  0  0  0  0
    7.7289  -11.9912   27.1054 C   0  0  0  0  0  0
    6.9429  -11.2326   27.9715 C   0  0  0  0  0  0
    5.7183  -10.7309   27.5315 C   0  0  0  0  0  0
    3.3905  -10.9598   24.3640 O   0  0  0  0  0  0
    3.6763   -8.9332   25.8878 O   0  0  0  0  0  0
    2.3917  -10.5013   28.0744 C   0  0  0  0  0  0
    1.4700  -11.2488   28.7699 C   0  0  0  0  0  0
    1.0018  -12.2592   27.8761 C   0  0  0  0  0  0
    0.0322  -13.2661   27.9723 C   0  0  0  0  0  0
   -2.0359  -15.3296   28.0237 N   0  0  0  0  0  0
   -3.2317  -16.1710   28.1209 C   0  0  0  0  0  0
   -3.0510  -17.6858   27.8934 C   0  0  0  0  0  0
   -4.0618  -18.4880   27.3253 C   0  0  0  0  0  0
   -5.2864  -17.8882   26.6142 C   0  0  0  0  0  0
   -5.9678  -18.8103   25.9372 F   0  0  0  0  0  0
   -6.1127  -17.3337   27.4966 F   0  0  0  0  0  0
   -4.9141  -16.9678   25.7230 F   0  0  0  0  0  0
   -3.9239  -19.8837   27.3864 C   0  0  0  0  0  0
   -2.7874  -20.5173   27.8969 C   0  0  0  0  0  0
   -2.8383  -21.8871   27.9777 N   0  5  0  0  0  0
   -1.6544  -22.8932   28.1951 S   0  0  0  0  0  0
   -1.2501  -23.4026   26.4410 C   0  0  0  0  0  0
   -2.1033  -24.1237   28.8511 O   0  0  0  0  0  0
   -0.4033  -22.3218   28.6971 O   0  0  0  0  0  0
   -1.7327  -19.6888   28.2974 C   0  0  0  0  0  0
   -1.8630  -18.3011   28.3009 C   0  0  0  0  0  0
    0.3397  -14.5322   24.8393 H   0  0  0  0  0  0
    2.0558  -12.8799   24.6435 H   0  0  0  0  0  0
    5.7356  -11.9782   24.3628 H   0  0  0  0  0  0
    8.6716  -12.3864   27.4433 H   0  0  0  0  0  0
    7.2815  -11.0310   28.9771 H   0  0  0  0  0  0
    5.1280  -10.1334   28.2086 H   0  0  0  0  0  0
    2.9526   -9.6294   28.3790 H   0  0  0  0  0  0
    1.1467  -11.0634   29.7838 H   0  0  0  0  0  0
   -0.5444  -13.3328   28.8801 H   0  0  0  0  0  0
   -1.6929  -14.9336   28.8987 H   0  0  0  0  0  0
   -3.9869  -15.7338   27.4706 H   0  0  0  0  0  0
   -3.6268  -16.0478   29.1301 H   0  0  0  0  0  0
   -4.7261  -20.5075   27.0187 H   0  0  0  0  0  0
   -0.4523  -24.1435   26.4775 H   0  0  0  0  0  0
   -0.9292  -22.5183   25.8949 H   0  0  0  0  0  0
   -2.1432  -23.8277   25.9869 H   0  0  0  0  0  0
   -0.8113  -20.0844   28.6873 H   0  0  0  0  0  0
   -1.0541  -17.7092   28.7026 H   0  0  0  0  0  0
  1  2  2  0  0  0
  2  3  1  0  0  0
  2 22  1  0  0  0
  3 21  1  0  0  0
  3  4  2  0  0  0
  4  5  1  0  0  0
  4 39  1  0  0  0
  5  6  2  0  0  0
  5 40  1  0  0  0
  6  7  1  0  0  0
  6 20  1  0  0  0
  7  8  1  0  0  0
  7 18  1  0  0  0
  8  9  1  0  0  0
  8 16  2  0  0  0
  8 17  2  0  0  0
  9 15  1  0  0  0
  9 10  2  0  0  0
 10 11  1  0  0  0
 10 41  1  0  0  0
 11 12  1  0  0  0
 11 13  2  0  0  0
 13 14  1  0  0  0
 13 42  1  0  0  0
 14 15  2  0  0  0
 14 43  1  0  0  0
 15 44  1  0  0  0
 18 19  2  0  0  0
 18 45  1  0  0  0
 19 20  1  0  0  0
 19 46  1  0  0  0
 20 21  2  0  0  0
 21 47  1  0  0  0
 22 23  1  0  0  0
 22 48  1  0  0  0
 23 24  1  0  0  0
 23 49  1  0  0  0
 23 50  1  0  0  0
 24 38  1  0  0  0
 24 25  2  0  0  0
 25 26  1  0  0  0
 25 30  1  0  0  0
 26 27  1  0  0  0
 26 28  1  0  0  0
 26 29  1  0  0  0
 30 31  2  0  0  0
 30 51  1  0  0  0
 31 32  1  0  0  0
 31 37  1  0  0  0
 32 33  1  0  0  0
 33 34  1  0  0  0
 33 35  2  0  0  0
 33 36  2  0  0  0
 34 52  1  0  0  0
 34 53  1  0  0  0
 34 54  1  0  0  0
 37 38  2  0  0  0
 37 55  1  0  0  0
 38 56  1  0  0  0
M  CHG  1  32  -1
M  END
> <s_m_source_file>
/home/yujie/leadopt/data/result/selection/sEH/lig_10d.sdf

> <i_m_source_file_index>
1

> <i_lp_mmshare_version>
51139

> <i_f3d_flags>
0

> <s_epik_input>
W0NIM11TKD1PKSg9TylbTkhdYyhbY0hdW2NIXTEpW2NIXWMoQyhGKShGKUYpYzFbQ0gyXVtOSF1DKD1PKWMoW2NIXVtjSF0yKVtjSF1jKGMyMylbY0hdW2NIXW4zUyg9TykoPU8pYzRbY0hdYyhGKVtjSF1bY0hdW2NIXTQ=

> <s_epik_cmdline>
J2VwaWtfcHl0aG9uJywgJy1waHQnLCAnMi4wJywgJy1waCcsICc3LjAnLCAnLXRuJywgJzgnLCAnLW1hJywgJzIwMCcsICctaW1hZScsICc8aW5maWxlLm1hZT4nLCAnLW9tYWUnLCAnPG91dGZpbGUubWFlPic=

> <r_epik_Ionization_Penalty>
  1.1039

> <r_epik_Ionization_Penalty_Charging>
  1.1039

> <r_epik_Ionization_Penalty_Neutral>
  0.0000

> <r_epik_State_Penalty>
  1.1613

> <r_epik_Charging_Adjusted_Penalty>
2.26518

> <i_epik_Tot_Q>
-1

> <i_epik_Tot_abs_Q>
1

> <s_lp_Force_Field>
OPLS3e

> <r_lp_Energy>
38.3712

> <b_lp_Chiralities_Consistent>
1

> <s_lp_Variant>
/home/yujie/leadopt/data/result/selection/sEH/lig_10d.sdf:1-2

> <s_i_glide_gridfile>
glide-grid_sEH

> <i_i_glide_lignum>
2

> <i_i_glide_rotatable_bonds>
9

> <r_i_docking_score>
-11.9011433232246

> <r_i_glide_ligand_efficiency>
-0.31318798219012

> <r_i_glide_ligand_efficiency_sa>
-1.05293029255147

> <r_i_glide_ligand_efficiency_ln>
-2.56623659665371

> <r_i_glide_gscore>
-13.0624233232246

> <r_i_glide_lipo>
-4.65761656026659

> <r_i_glide_hbond>
-0.72

> <r_i_glide_metal>
-0

> <r_i_glide_rewards>
-2.69987659245647

> <r_i_glide_evdw>
-62.4109420776367

> <r_i_glide_ecoul>
-13.5148315429688

> <r_i_glide_erotb>
0.36284166482563

> <r_i_glide_esite>
-0.2

> <r_i_glide_emodel>
-131.964523782353

> <r_i_glide_energy>
-75.9257736206055

> <r_i_glide_einternal>
10.088981628418

> <i_i_glide_confnum>
50

> <i_i_glide_posenum>
398

> <r_i_glide_eff_state_penalty>
1.16128

$$$$
