/home/yujie/leadopt/data/result/selection/sEH/lig_11o.sdf:1
                    3D
 Schrodinger Suite 2020-3.
 62 65  0  0  1  0            999 V2000
   -1.4850  -15.3329   25.6496 O   0  0  0  0  0  0
   -0.9753  -14.9536   26.7050 C   0  0  0  0  0  0
    0.2379  -14.0563   26.6694 C   0  0  0  0  0  0
    0.9590  -13.9750   25.4771 C   0  0  0  0  0  0
    2.1089  -13.2157   25.3355 C   0  0  0  0  0  0
    2.5705  -12.5421   26.4611 C   0  0  0  0  0  0
    1.8282  -12.5328   27.6751 C   0  0  0  0  0  0
    2.5547  -11.6972   28.5705 C   0  0  0  0  0  0
    3.7359  -11.3275   27.9524 C   0  0  0  0  0  0
    4.8829  -10.5541   28.5368 C   0  0  0  0  0  0
    3.7447  -11.8375   26.6630 N   0  0  0  0  0  0
    4.9718  -11.6236   25.4425 S   0  0  0  0  0  0
    4.1820  -10.3088   24.3139 C   0  0  0  0  0  0
    5.0941  -10.0834   23.0955 C   0  0  0  0  0  0
    3.9208   -9.0107   25.0969 C   0  0  0  0  0  0
    5.0410  -12.8944   24.7123 O   0  0  0  0  0  0
    6.1725  -11.0716   26.0778 O   0  0  0  0  0  0
    0.6485  -13.2926   27.7730 C   0  0  0  0  0  0
   -1.4744  -15.3126   27.8972 N   0  0  0  0  0  0
   -2.7007  -16.0948   28.0795 C   0  0  0  0  0  0
   -2.5992  -17.6330   28.0225 C   0  0  0  0  0  0
   -3.7378  -18.4240   27.7587 C   0  0  0  0  0  0
   -5.0825  -17.8045   27.3657 C   0  0  0  0  0  0
   -5.4419  -16.9329   28.2972 F   0  0  0  0  0  0
   -4.9792  -17.1804   26.1914 F   0  0  0  0  0  0
   -6.0645  -18.6983   27.2619 F   0  0  0  0  0  0
   -3.6509  -19.8150   27.8972 C   0  0  0  0  0  0
   -2.4697  -20.4694   28.2463 C   0  0  0  0  0  0
   -2.5715  -21.8242   28.4439 N   0  5  0  0  0  0
   -1.4289  -22.8923   28.3364 S   0  0  0  0  0  0
   -1.4098  -23.2526   26.4752 C   0  0  0  0  0  0
   -0.8940  -24.6001   26.0282 C   0  0  0  0  0  0
   -2.3786  -24.2963   25.9660 C   0  0  0  0  0  0
   -0.0796  -22.4104   28.6392 O   0  0  0  0  0  0
   -1.8131  -24.1468   28.9915 O   0  0  0  0  0  0
   -1.3290  -19.6726   28.4071 C   0  0  0  0  0  0
   -1.3885  -18.2804   28.2973 C   0  0  0  0  0  0
    0.6407  -14.5328   24.6088 H   0  0  0  0  0  0
    2.6410  -13.1996   24.3986 H   0  0  0  0  0  0
    2.2901  -11.4505   29.5878 H   0  0  0  0  0  0
    4.6129  -10.1329   29.4980 H   0  0  0  0  0  0
    5.7570  -11.1850   28.6976 H   0  0  0  0  0  0
    5.1870   -9.7329   27.8970 H   0  0  0  0  0  0
    3.2353  -10.7325   23.9786 H   0  0  0  0  0  0
    4.6708   -9.3505   22.4076 H   0  0  0  0  0  0
    5.2372  -11.0096   22.5374 H   0  0  0  0  0  0
    6.0797   -9.7274   23.3977 H   0  0  0  0  0  0
    3.4711   -8.2498   24.4585 H   0  0  0  0  0  0
    3.2418   -9.1775   25.9336 H   0  0  0  0  0  0
    4.8493   -8.6026   25.4971 H   0  0  0  0  0  0
    0.0916  -13.3059   28.7003 H   0  0  0  0  0  0
   -1.0508  -14.9800   28.7665 H   0  0  0  0  0  0
   -3.0928  -15.8366   29.0650 H   0  0  0  0  0  0
   -3.4344  -15.7330   27.3594 H   0  0  0  0  0  0
   -4.5346  -20.4182   27.7440 H   0  0  0  0  0  0
   -1.2053  -22.3542   25.8973 H   0  0  0  0  0  0
   -0.3200  -24.6538   25.1033 H   0  0  0  0  0  0
   -0.5289  -25.2948   26.7850 H   0  0  0  0  0  0
   -3.0495  -24.7770   26.6794 H   0  0  0  0  0  0
   -2.8571  -24.1333   25.0016 H   0  0  0  0  0  0
   -0.3858  -20.1065   28.6970 H   0  0  0  0  0  0
   -0.4946  -17.7066   28.4953 H   0  0  0  0  0  0
  1  2  2  0  0  0
  2  3  1  0  0  0
  2 19  1  0  0  0
  3 18  1  0  0  0
  3  4  2  0  0  0
  4  5  1  0  0  0
  4 38  1  0  0  0
  5  6  2  0  0  0
  5 39  1  0  0  0
  6 11  1  0  0  0
  6  7  1  0  0  0
  7  8  1  0  0  0
  7 18  2  0  0  0
  8  9  2  0  0  0
  8 40  1  0  0  0
  9 10  1  0  0  0
  9 11  1  0  0  0
 10 41  1  0  0  0
 10 42  1  0  0  0
 10 43  1  0  0  0
 11 12  1  0  0  0
 12 13  1  0  0  0
 12 16  2  0  0  0
 12 17  2  0  0  0
 13 14  1  0  0  0
 13 15  1  0  0  0
 13 44  1  0  0  0
 14 45  1  0  0  0
 14 46  1  0  0  0
 14 47  1  0  0  0
 15 48  1  0  0  0
 15 49  1  0  0  0
 15 50  1  0  0  0
 18 51  1  0  0  0
 19 20  1  0  0  0
 19 52  1  0  0  0
 20 21  1  0  0  0
 20 53  1  0  0  0
 20 54  1  0  0  0
 21 37  1  0  0  0
 21 22  2  0  0  0
 22 23  1  0  0  0
 22 27  1  0  0  0
 23 24  1  0  0  0
 23 25  1  0  0  0
 23 26  1  0  0  0
 27 28  2  0  0  0
 27 55  1  0  0  0
 28 29  1  0  0  0
 28 36  1  0  0  0
 29 30  1  0  0  0
 30 31  1  0  0  0
 30 34  2  0  0  0
 30 35  2  0  0  0
 31 33  1  0  0  0
 31 32  1  0  0  0
 31 56  1  0  0  0
 32 33  1  0  0  0
 32 57  1  0  0  0
 32 58  1  0  0  0
 33 59  1  0  0  0
 33 60  1  0  0  0
 36 37  2  0  0  0
 36 61  1  0  0  0
 37 62  1  0  0  0
M  CHG  1  29  -1
M  END
> <s_m_source_file>
/home/yujie/leadopt/data/result/selection/sEH/lig_11o.sdf

> <i_m_source_file_index>
1

> <i_lp_mmshare_version>
51139

> <i_f3d_flags>
0

> <s_epik_input>
W0NIM11bQ0hdKFtDSDNdKVMoPU8pKD1PKW4xYyhbQ0gzXSlbY0hdYyhjMTIpW2NIXWMoW2NIXVtjSF0yKUMoPU8pW05IXVtDSDJdYzNjKEMoRikoRilGKVtjSF1jKFtjSF1bY0hdMylbTkhdUyg9TykoPU8pW0NIXTRbQ0gyXVtDSDJdNA==

> <s_epik_cmdline>
J2VwaWtfcHl0aG9uJywgJy1waHQnLCAnMi4wJywgJy1waCcsICc3LjAnLCAnLXRuJywgJzgnLCAnLW1hJywgJzIwMCcsICctaW1hZScsICc8aW5maWxlLm1hZT4nLCAnLW9tYWUnLCAnPG91dGZpbGUubWFlPic=

> <r_epik_Ionization_Penalty>
  1.2618

> <r_epik_Ionization_Penalty_Charging>
  1.2618

> <r_epik_Ionization_Penalty_Neutral>
  0.0000

> <r_epik_State_Penalty>
  1.3325

> <r_epik_Charging_Adjusted_Penalty>
2.59425

> <i_epik_Tot_Q>
-1

> <i_epik_Tot_abs_Q>
1

> <s_lp_Force_Field>
OPLS3e

> <r_lp_Energy>
43.7284

> <b_lp_Chiralities_Consistent>
1

> <s_lp_Variant>
/home/yujie/leadopt/data/result/selection/sEH/lig_11o.sdf:1-2

> <s_i_glide_gridfile>
glide-grid_sEH

> <i_i_glide_lignum>
2

> <i_i_glide_rotatable_bonds>
10

> <r_i_docking_score>
-11.1883761158665

> <r_i_glide_ligand_efficiency>
-0.302388543672069

> <r_i_glide_ligand_efficiency_sa>
-1.00762571169865

> <r_i_glide_ligand_efficiency_ln>
-2.42649648678095

> <r_i_glide_gscore>
-12.5208461158665

> <r_i_glide_lipo>
-4.7040871374

> <r_i_glide_hbond>
-0.72

> <r_i_glide_metal>
-0

> <r_i_glide_rewards>
-2.35261464265051

> <r_i_glide_evdw>
-53.4934463500977

> <r_i_glide_ecoul>
-15.3848972320557

> <r_i_glide_erotb>
0.460419118105497

> <r_i_glide_esite>
-0.222156551608306

> <r_i_glide_emodel>
-118.059984519575

> <r_i_glide_energy>
-68.8783435821533

> <r_i_glide_einternal>
8.35510540008545

> <i_i_glide_confnum>
70

> <i_i_glide_posenum>
331

> <r_i_glide_eff_state_penalty>
1.33247

$$$$
