/home/yujie/leadopt/data/result/selection/sEH/lig_11k.sdf:1
                    3D
 Schrodinger Suite 2020-3.
 63 66  0  0  1  0            999 V2000
   -1.3616  -15.3330   25.6493 O   0  0  0  0  0  0
   -0.9290  -14.9353   26.7302 C   0  0  0  0  0  0
    0.1416  -13.8647   26.7691 C   0  0  0  0  0  0
    0.7628  -13.4867   25.5708 C   0  0  0  0  0  0
    1.7020  -12.4637   25.4970 C   0  0  0  0  0  0
    2.0373  -11.8181   26.6914 C   0  0  0  0  0  0
    2.9174  -10.7770   26.9406 N   0  0  0  0  0  0
    3.7234  -10.0972   25.9354 C   0  0  0  0  0  0
    4.8548  -11.0210   25.4265 C   0  0  0  0  0  0
    5.5745  -10.4482   24.1791 N   0  3  0  0  0  0
    4.6661  -10.3798   22.9286 C   0  0  0  0  0  0
    6.2848   -9.1010   24.4410 C   0  0  0  0  0  0
    2.9223  -10.5091   28.2913 C   0  0  0  0  0  0
    2.0247  -11.3331   28.9353 C   0  0  0  0  0  0
    1.4448  -12.1790   27.9366 C   0  0  0  0  0  0
    0.4882  -13.2036   27.9602 C   0  0  0  0  0  0
   -1.4286  -15.3710   27.8973 N   0  0  0  0  0  0
   -2.6338  -16.1884   28.0848 C   0  0  0  0  0  0
   -2.5051  -17.7225   27.9786 C   0  0  0  0  0  0
   -3.5645  -18.5250   27.4974 C   0  0  0  0  0  0
   -4.8639  -17.9164   26.9540 C   0  0  0  0  0  0
   -4.6060  -17.1440   25.8973 F   0  0  0  0  0  0
   -5.7292  -18.8468   26.5571 F   0  0  0  0  0  0
   -5.4546  -17.1858   27.8969 F   0  0  0  0  0  0
   -3.4238  -19.9227   27.4972 C   0  0  0  0  0  0
   -2.2434  -20.5452   27.8974 C   0  0  0  0  0  0
   -2.1407  -21.9325   27.6917 N   0  0  0  0  0  0
   -1.1510  -23.0531   28.6613 S   0  0  0  0  0  0
   -1.1264  -24.6428   27.6280 C   0  0  0  0  0  0
   -2.3276  -24.9781   26.7758 C   0  0  0  0  0  0
   -1.0382  -24.4987   26.1278 C   0  0  0  0  0  0
    0.2186  -22.5333   28.6970 O   0  0  0  0  0  0
   -1.8898  -23.3328   29.8968 O   0  0  0  0  0  0
   -1.2036  -19.7461   28.3741 C   0  0  0  0  0  0
   -1.3290  -18.3537   28.4054 C   0  0  0  0  0  0
    0.5031  -13.9850   24.6466 H   0  0  0  0  0  0
    2.1378  -12.1860   24.5491 H   0  0  0  0  0  0
    4.1232   -9.1818   26.3677 H   0  0  0  0  0  0
    3.0420   -9.8005   25.1374 H   0  0  0  0  0  0
    4.5000  -12.0064   25.1188 H   0  0  0  0  0  0
    5.6348  -11.1662   26.1774 H   0  0  0  0  0  0
    3.9162   -9.6046   23.0920 H   0  0  0  0  0  0
    4.2020  -11.3592   22.7883 H   0  0  0  0  0  0
    5.2999  -10.1351   22.0745 H   0  0  0  0  0  0
    5.5247   -8.3387   24.6193 H   0  0  0  0  0  0
    6.9319   -9.2333   25.3102 H   0  0  0  0  0  0
    6.8737   -8.8657   23.5530 H   0  0  0  0  0  0
    3.5631   -9.7332   28.6861 H   0  0  0  0  0  0
    1.8158  -11.3286   29.9953 H   0  0  0  0  0  0
    0.0186  -13.4459   28.9008 H   0  0  0  0  0  0
   -1.0236  -15.0350   28.7740 H   0  0  0  0  0  0
   -2.9927  -15.9798   29.0942 H   0  0  0  0  0  0
   -3.4038  -15.7946   27.4244 H   0  0  0  0  0  0
   -4.2225  -20.5412   27.1139 H   0  0  0  0  0  0
   -2.9925  -22.3502   27.3557 H   0  0  0  0  0  0
   -0.5796  -25.4331   28.1398 H   0  0  0  0  0  0
   -2.6082  -26.0272   26.6734 H   0  0  0  0  0  0
   -3.1972  -24.3226   26.7898 H   0  0  0  0  0  0
   -0.9944  -23.4979   25.6957 H   0  0  0  0  0  0
   -0.4237  -25.2114   25.5761 H   0  0  0  0  0  0
   -0.2701  -20.1810   28.6982 H   0  0  0  0  0  0
   -0.5039  -17.7651   28.7812 H   0  0  0  0  0  0
    6.3046  -11.1156   23.9564 H   0  0  0  0  0  0
  1  2  2  0  0  0
  2  3  1  0  0  0
  2 17  1  0  0  0
  3 16  1  0  0  0
  3  4  2  0  0  0
  4  5  1  0  0  0
  4 36  1  0  0  0
  5  6  2  0  0  0
  5 37  1  0  0  0
  6  7  1  0  0  0
  6 15  1  0  0  0
  7  8  1  0  0  0
  7 13  1  0  0  0
  8  9  1  0  0  0
  8 38  1  0  0  0
  8 39  1  0  0  0
  9 10  1  0  0  0
  9 40  1  0  0  0
  9 41  1  0  0  0
 10 11  1  0  0  0
 10 12  1  0  0  0
 10 63  1  0  0  0
 11 42  1  0  0  0
 11 43  1  0  0  0
 11 44  1  0  0  0
 12 45  1  0  0  0
 12 46  1  0  0  0
 12 47  1  0  0  0
 13 14  2  0  0  0
 13 48  1  0  0  0
 14 15  1  0  0  0
 14 49  1  0  0  0
 15 16  2  0  0  0
 16 50  1  0  0  0
 17 18  1  0  0  0
 17 51  1  0  0  0
 18 19  1  0  0  0
 18 52  1  0  0  0
 18 53  1  0  0  0
 19 35  1  0  0  0
 19 20  2  0  0  0
 20 21  1  0  0  0
 20 25  1  0  0  0
 21 22  1  0  0  0
 21 23  1  0  0  0
 21 24  1  0  0  0
 25 26  2  0  0  0
 25 54  1  0  0  0
 26 27  1  0  0  0
 26 34  1  0  0  0
 27 28  1  0  0  0
 27 55  1  0  0  0
 28 29  1  0  0  0
 28 32  2  0  0  0
 28 33  2  0  0  0
 29 31  1  0  0  0
 29 30  1  0  0  0
 29 56  1  0  0  0
 30 31  1  0  0  0
 30 57  1  0  0  0
 30 58  1  0  0  0
 31 59  1  0  0  0
 31 60  1  0  0  0
 34 35  2  0  0  0
 34 61  1  0  0  0
 35 62  1  0  0  0
M  CHG  1  10   1
M  END
> <s_m_source_file>
/home/yujie/leadopt/data/result/selection/sEH/lig_11k.sdf

> <i_m_source_file_index>
1

> <i_lp_mmshare_version>
51139

> <i_f3d_flags>
0

> <s_epik_input>
W0NIM11OKFtDSDNdKVtDSDJdW0NIMl1uMVtjSF1bY0hdYyhjMTIpW2NIXWMoW2NIXVtjSF0yKUMoPU8pW05IXVtDSDJdYzNjKEMoRikoRilGKVtjSF1jKFtjSF1bY0hdMylbTkhdUyg9TykoPU8pW0NIXTRbQ0gyXVtDSDJdNA==

> <s_epik_cmdline>
J2VwaWtfcHl0aG9uJywgJy1waHQnLCAnMi4wJywgJy1waCcsICc3LjAnLCAnLXRuJywgJzgnLCAnLW1hJywgJzIwMCcsICctaW1hZScsICc8aW5maWxlLm1hZT4nLCAnLW9tYWUnLCAnPG91dGZpbGUubWFlPic=

> <r_epik_Ionization_Penalty>
  0.1215

> <r_epik_Ionization_Penalty_Charging>
  0.0466

> <r_epik_Ionization_Penalty_Neutral>
  0.0750

> <r_epik_State_Penalty>
  0.1057

> <r_epik_Charging_Adjusted_Penalty>
0.152207

> <i_epik_Tot_Q>
1

> <i_epik_Tot_abs_Q>
1

> <s_lp_Force_Field>
OPLS3e

> <r_lp_Energy>
56.4116

> <b_lp_Chiralities_Consistent>
1

> <s_lp_Variant>
/home/yujie/leadopt/data/result/selection/sEH/lig_11k.sdf:1-1

> <s_i_glide_gridfile>
glide-grid_sEH

> <i_i_glide_lignum>
1

> <i_i_glide_rotatable_bonds>
11

> <r_i_docking_score>
-12.8141319409923

> <r_i_glide_ligand_efficiency>
-0.366118055456923

> <r_i_glide_ligand_efficiency_sa>
-1.19759643533761

> <r_i_glide_ligand_efficiency_ln>
-2.81298635538348

> <r_i_glide_gscore>
-12.9197849409923

> <r_i_glide_lipo>
-4.7792298203107

> <r_i_glide_hbond>
-0.72

> <r_i_glide_metal>
-0

> <r_i_glide_rewards>
-2.47374732901887

> <r_i_glide_evdw>
-56.2399024963379

> <r_i_glide_ecoul>
-17.6313228607178

> <r_i_glide_erotb>
0.709885762261808

> <r_i_glide_esite>
-0.2

> <r_i_glide_emodel>
-126.387545891632

> <r_i_glide_energy>
-73.8712253570557

> <r_i_glide_einternal>
18.9328022003174

> <i_i_glide_confnum>
185

> <i_i_glide_posenum>
285

> <r_i_glide_eff_state_penalty>
0.105653

$$$$
