/home/yujie/leadopt/data/result/selection/sEH/lig_11g.sdf:1
                    3D
 Schrodinger Suite 2020-3.
 60 63  0  0  1  0            999 V2000
   -1.3294  -15.3344   25.6553 O   0  0  0  0  0  0
   -0.9557  -14.9162   26.7510 C   0  0  0  0  0  0
    0.1394  -13.8748   26.8012 C   0  0  0  0  0  0
    0.8146  -13.5485   25.6159 C   0  0  0  0  0  0
    1.7663  -12.5391   25.5410 C   0  0  0  0  0  0
    2.0535  -11.8469   26.7194 C   0  0  0  0  0  0
    2.9256  -10.7958   26.9608 N   0  0  0  0  0  0
    3.7831  -10.1419   25.9698 C   0  0  0  0  0  0
    5.2664  -10.6311   25.9852 C   0  0  0  0  0  0
    6.0865   -9.8822   24.9013 C   0  0  0  0  0  0
    5.9224   -8.5591   24.9792 F   0  0  0  0  0  0
    5.7236  -10.2446   23.6691 F   0  0  0  0  0  0
    7.3965  -10.1149   25.0164 F   0  0  0  0  0  0
    5.4450  -12.1741   25.8780 C   0  0  0  0  0  0
    4.9281  -12.8109   26.9273 F   0  0  0  0  0  0
    4.8565  -12.6631   24.7849 F   0  0  0  0  0  0
    6.7286  -12.5338   25.8268 F   0  0  0  0  0  0
    2.8801  -10.4899   28.3007 C   0  0  0  0  0  0
    1.9481  -11.2803   28.9409 C   0  0  0  0  0  0
    1.4103  -12.1624   27.9553 C   0  0  0  0  0  0
    0.4518  -13.1854   27.9809 C   0  0  0  0  0  0
   -1.5591  -15.2922   27.8953 N   0  0  0  0  0  0
   -2.7655  -16.1317   27.9619 C   0  0  0  0  0  0
   -2.5884  -17.6645   27.9352 C   0  0  0  0  0  0
   -3.6182  -18.5267   27.4847 C   0  0  0  0  0  0
   -4.8864  -18.0042   26.7974 C   0  0  0  0  0  0
   -5.6958  -18.9845   26.3939 F   0  0  0  0  0  0
   -5.5729  -17.2398   27.6396 F   0  0  0  0  0  0
   -4.5666  -17.2944   25.7163 F   0  0  0  0  0  0
   -3.4982  -19.9088   27.7006 C   0  0  0  0  0  0
   -2.3679  -20.4548   28.3028 C   0  0  0  0  0  0
   -2.3946  -21.8001   28.6946 N   0  0  0  0  0  0
   -1.2191  -22.9993   28.1431 S   0  0  0  0  0  0
   -1.6205  -23.0825   26.2999 C   0  0  0  0  0  0
   -1.4734  -24.4215   25.6230 C   0  0  0  0  0  0
   -2.8538  -23.8560   25.9020 C   0  0  0  0  0  0
    0.1299  -22.4555   28.3108 O   0  0  0  0  0  0
   -1.6042  -24.2623   28.7800 O   0  0  0  0  0  0
   -1.3062  -19.6148   28.6308 C   0  0  0  0  0  0
   -1.4134  -18.2340   28.4467 C   0  0  0  0  0  0
    0.5917  -14.0747   24.6980 H   0  0  0  0  0  0
    2.2518  -12.3104   24.6035 H   0  0  0  0  0  0
    3.7312   -9.0690   26.1640 H   0  0  0  0  0  0
    3.3351  -10.2761   24.9837 H   0  0  0  0  0  0
    5.6883  -10.3378   26.9486 H   0  0  0  0  0  0
    3.5177   -9.7129   28.6913 H   0  0  0  0  0  0
    1.6975  -11.2356   29.9914 H   0  0  0  0  0  0
   -0.0477  -13.4179   28.9094 H   0  0  0  0  0  0
   -1.2315  -14.9309   28.7950 H   0  0  0  0  0  0
   -3.2516  -15.8972   28.9122 H   0  0  0  0  0  0
   -3.4654  -15.7925   27.1978 H   0  0  0  0  0  0
   -4.3085  -20.5723   27.4323 H   0  0  0  0  0  0
   -3.3129  -22.1957   28.8203 H   0  0  0  0  0  0
   -1.3627  -22.1533   25.7989 H   0  0  0  0  0  0
   -1.1048  -24.4506   24.5985 H   0  0  0  0  0  0
   -1.1117  -25.2660   26.2121 H   0  0  0  0  0  0
   -3.4602  -24.3041   26.6873 H   0  0  0  0  0  0
   -3.4615  -23.4789   25.0776 H   0  0  0  0  0  0
   -0.4180  -20.0184   29.0995 H   0  0  0  0  0  0
   -0.6029  -17.6019   28.7829 H   0  0  0  0  0  0
  1  2  2  0  0  0
  2  3  1  0  0  0
  2 22  1  0  0  0
  3 21  1  0  0  0
  3  4  2  0  0  0
  4  5  1  0  0  0
  4 41  1  0  0  0
  5  6  2  0  0  0
  5 42  1  0  0  0
  6  7  1  0  0  0
  6 20  1  0  0  0
  7  8  1  0  0  0
  7 18  1  0  0  0
  8  9  1  0  0  0
  8 43  1  0  0  0
  8 44  1  0  0  0
  9 10  1  0  0  0
  9 14  1  0  0  0
  9 45  1  0  0  0
 10 11  1  0  0  0
 10 12  1  0  0  0
 10 13  1  0  0  0
 14 15  1  0  0  0
 14 16  1  0  0  0
 14 17  1  0  0  0
 18 19  2  0  0  0
 18 46  1  0  0  0
 19 20  1  0  0  0
 19 47  1  0  0  0
 20 21  2  0  0  0
 21 48  1  0  0  0
 22 23  1  0  0  0
 22 49  1  0  0  0
 23 24  1  0  0  0
 23 50  1  0  0  0
 23 51  1  0  0  0
 24 40  1  0  0  0
 24 25  2  0  0  0
 25 26  1  0  0  0
 25 30  1  0  0  0
 26 27  1  0  0  0
 26 28  1  0  0  0
 26 29  1  0  0  0
 30 31  2  0  0  0
 30 52  1  0  0  0
 31 32  1  0  0  0
 31 39  1  0  0  0
 32 33  1  0  0  0
 32 53  1  0  0  0
 33 34  1  0  0  0
 33 37  2  0  0  0
 33 38  2  0  0  0
 34 36  1  0  0  0
 34 35  1  0  0  0
 34 54  1  0  0  0
 35 36  1  0  0  0
 35 55  1  0  0  0
 35 56  1  0  0  0
 36 57  1  0  0  0
 36 58  1  0  0  0
 39 40  2  0  0  0
 39 59  1  0  0  0
 40 60  1  0  0  0
M  END
> <s_m_source_file>
/home/yujie/leadopt/data/result/selection/sEH/lig_11g.sdf

> <i_m_source_file_index>
1

> <i_lp_mmshare_version>
51139

> <i_f3d_flags>
0

> <s_epik_input>
RkMoRikoRilbQ0hdKEMoRikoRilGKVtDSDJdbjFbY0hdW2NIXWMoYzEyKVtjSF1jKFtjSF1bY0hdMilDKD1PKVtOSF1bQ0gyXWMzYyhDKEYpKEYpRilbY0hdYyhbY0hdW2NIXTMpW05IXVMoPU8pKD1PKVtDSF00W0NIMl1bQ0gyXTQ=

> <s_epik_cmdline>
J2VwaWtfcHl0aG9uJywgJy1waHQnLCAnMi4wJywgJy1waCcsICc3LjAnLCAnLXRuJywgJzgnLCAnLW1hJywgJzIwMCcsICctaW1hZScsICc8aW5maWxlLm1hZT4nLCAnLW9tYWUnLCAnPG91dGZpbGUubWFlPic=

> <r_epik_Ionization_Penalty>
  0.0750

> <r_epik_Ionization_Penalty_Charging>
  0.0000

> <r_epik_Ionization_Penalty_Neutral>
  0.0750

> <r_epik_State_Penalty>
  0.0661

> <r_epik_Charging_Adjusted_Penalty>
0.0660634

> <i_epik_Tot_Q>
0

> <i_epik_Tot_abs_Q>
0

> <s_lp_Force_Field>
OPLS3e

> <r_lp_Energy>
36.9537

> <b_lp_Chiralities_Consistent>
1

> <s_lp_Variant>
/home/yujie/leadopt/data/result/selection/sEH/lig_11g.sdf:1-1

> <s_i_glide_gridfile>
glide-grid_sEH

> <i_i_glide_lignum>
1

> <i_i_glide_rotatable_bonds>
12

> <r_i_docking_score>
-13.4359908417877

> <r_i_glide_ligand_efficiency>
-0.335899771044693

> <r_i_glide_ligand_efficiency_sa>
-1.14876105654872

> <r_i_glide_ligand_efficiency_ln>
-2.86550144299385

> <r_i_glide_gscore>
-13.5020542417877

> <r_i_glide_lipo>
-5.03427142266425

> <r_i_glide_hbond>
-0.72

> <r_i_glide_metal>
-0

> <r_i_glide_rewards>
-2.69968982949869

> <r_i_glide_evdw>
-58.2070846557617

> <r_i_glide_ecoul>
-15.6165056228638

> <r_i_glide_erotb>
0.404737086592881

> <r_i_glide_esite>
-0.2

> <r_i_glide_emodel>
-134.489223897355

> <r_i_glide_energy>
-73.8235902786255

> <r_i_glide_einternal>
6.14041566848755

> <i_i_glide_confnum>
145

> <i_i_glide_posenum>
130

> <r_i_glide_eff_state_penalty>
0.0660634

$$$$
