/home/yujie/leadopt/data/result/selection/sEH/lig_7b.sdf:1
                    3D
 Schrodinger Suite 2020-3.
 53 56  0  0  1  0            999 V2000
   -1.6952  -15.6270   25.6977 O   0  0  0  0  0  0
   -1.3219  -15.0815   26.7316 C   0  0  0  0  0  0
   -0.1691  -14.1051   26.7132 C   0  0  0  0  0  0
    0.6151  -13.9408   25.5501 C   0  0  0  0  0  0
    1.6511  -13.0011   25.4984 C   0  0  0  0  0  0
    1.9138  -12.2477   26.6401 C   0  0  0  0  0  0
    2.8400  -11.2657   26.9265 N   0  0  0  0  0  0
    3.8089  -10.6571   26.0084 C   0  0  0  0  0  0
    5.2203  -11.2238   26.0744 C   0  0  0  0  0  0
    5.6780  -12.0893   25.0763 C   0  0  0  0  0  0
    6.9967  -12.5446   25.0937 C   0  0  0  0  0  0
    7.4336  -13.3834   24.1277 F   0  0  0  0  0  0
    7.8659  -12.1339   26.1049 C   0  0  0  0  0  0
    7.4161  -11.2720   27.1041 C   0  0  0  0  0  0
    6.0994  -10.8130   27.0836 C   0  0  0  0  0  0
    2.7516  -10.9047   28.2329 C   0  0  0  0  0  0
    1.6965  -11.5788   28.7195 N   0  0  0  0  0  0
    3.4643  -10.1330   28.8567 O   0  0  0  0  0  0
    1.1806  -12.4230   27.7787 C   0  0  0  0  0  0
    0.1251  -13.3170   27.8376 C   0  0  0  0  0  0
   -1.9500  -15.2808   27.8972 N   0  0  0  0  0  0
   -3.1080  -16.1498   28.0958 C   0  0  0  0  0  0
   -2.8181  -17.6567   28.0157 C   0  0  0  0  0  0
   -3.7260  -18.5710   27.4383 C   0  0  0  0  0  0
   -5.0089  -18.1061   26.7314 C   0  0  0  0  0  0
   -5.7287  -19.1246   26.2601 F   0  0  0  0  0  0
   -5.7804  -17.4170   27.5692 F   0  0  0  0  0  0
   -4.6994  -17.3274   25.6938 F   0  0  0  0  0  0
   -3.4347  -19.9439   27.4972 C   0  0  0  0  0  0
   -2.2380  -20.4198   28.0525 C   0  0  0  0  0  0
   -1.8789  -21.7511   28.1276 O   0  0  0  0  0  0
   -2.7518  -22.7393   27.5902 C   0  0  0  0  0  0
   -1.3295  -19.4986   28.5618 C   0  0  0  0  0  0
   -1.6134  -18.1368   28.5459 C   0  0  0  0  0  0
    0.4205  -14.5279   24.6649 H   0  0  0  0  0  0
    2.2262  -12.8782   24.5926 H   0  0  0  0  0  0
    3.4322  -10.7508   24.9894 H   0  0  0  0  0  0
    3.8594   -9.5832   26.1966 H   0  0  0  0  0  0
    5.0212  -12.4034   24.2785 H   0  0  0  0  0  0
    8.8858  -12.4887   26.1128 H   0  0  0  0  0  0
    8.0863  -10.9518   27.8884 H   0  0  0  0  0  0
    5.7711  -10.1278   27.8518 H   0  0  0  0  0  0
    1.3810  -11.5103   29.6751 H   0  0  0  0  0  0
   -0.4667  -13.3709   28.7347 H   0  0  0  0  0  0
   -1.5397  -14.9176   28.7590 H   0  0  0  0  0  0
   -3.8876  -15.8277   27.4074 H   0  0  0  0  0  0
   -3.4913  -15.9450   29.0970 H   0  0  0  0  0  0
   -4.1367  -20.6462   27.0756 H   0  0  0  0  0  0
   -2.3052  -23.7245   27.7238 H   0  0  0  0  0  0
   -2.9122  -22.5937   26.5206 H   0  0  0  0  0  0
   -3.7152  -22.7429   28.1021 H   0  0  0  0  0  0
   -0.4013  -19.8448   28.9961 H   0  0  0  0  0  0
   -0.8974  -17.4547   28.9831 H   0  0  0  0  0  0
  1  2  2  0  0  0
  2  3  1  0  0  0
  2 21  1  0  0  0
  3 20  1  0  0  0
  3  4  2  0  0  0
  4  5  1  0  0  0
  4 35  1  0  0  0
  5  6  2  0  0  0
  5 36  1  0  0  0
  6  7  1  0  0  0
  6 19  1  0  0  0
  7  8  1  0  0  0
  7 16  1  0  0  0
  8  9  1  0  0  0
  8 37  1  0  0  0
  8 38  1  0  0  0
  9 15  1  0  0  0
  9 10  2  0  0  0
 10 11  1  0  0  0
 10 39  1  0  0  0
 11 12  1  0  0  0
 11 13  2  0  0  0
 13 14  1  0  0  0
 13 40  1  0  0  0
 14 15  2  0  0  0
 14 41  1  0  0  0
 15 42  1  0  0  0
 16 17  1  0  0  0
 16 18  2  0  0  0
 17 19  1  0  0  0
 17 43  1  0  0  0
 19 20  2  0  0  0
 20 44  1  0  0  0
 21 22  1  0  0  0
 21 45  1  0  0  0
 22 23  1  0  0  0
 22 46  1  0  0  0
 22 47  1  0  0  0
 23 34  1  0  0  0
 23 24  2  0  0  0
 24 25  1  0  0  0
 24 29  1  0  0  0
 25 26  1  0  0  0
 25 27  1  0  0  0
 25 28  1  0  0  0
 29 30  2  0  0  0
 29 48  1  0  0  0
 30 31  1  0  0  0
 30 33  1  0  0  0
 31 32  1  0  0  0
 32 49  1  0  0  0
 32 50  1  0  0  0
 32 51  1  0  0  0
 33 34  2  0  0  0
 33 52  1  0  0  0
 34 53  1  0  0  0
M  END
> <s_m_source_file>
/home/yujie/leadopt/data/result/selection/sEH/lig_7b.sdf

> <i_m_source_file_index>
1

> <i_lp_mmshare_version>
51139

> <i_f3d_flags>
0

> <s_epik_input>
W0NIM11PYyhbY0hdW2NIXTEpW2NIXWMoQyhGKShGKUYpYzFbQ0gyXVtOSF1DKD1PKWMoW2NIXVtjSF0yKVtjSF1jKGMyMylbbkhdYyg9TyluM1tDSDJdYzRbY0hdYyhGKVtjSF1bY0hdW2NIXTQ=

> <s_epik_cmdline>
J2VwaWtfcHl0aG9uJywgJy1waHQnLCAnMi4wJywgJy1waCcsICc3LjAnLCAnLXRuJywgJzgnLCAnLW1hJywgJzIwMCcsICctaW1hZScsICc8aW5maWxlLm1hZT4nLCAnLW9tYWUnLCAnPG91dGZpbGUubWFlPic=

> <r_lp_tautomer_probability>
1

> <r_epik_Ionization_Penalty>
  0.0000

> <r_epik_Ionization_Penalty_Charging>
  0.0000

> <r_epik_Ionization_Penalty_Neutral>
  0.0000

> <r_epik_State_Penalty>
 -0.0000

> <r_epik_Charging_Adjusted_Penalty>
2.2531e-05

> <i_epik_Tot_Q>
0

> <i_epik_Tot_abs_Q>
0

> <s_lp_Force_Field>
OPLS3e

> <r_lp_Energy>
37.0128

> <b_lp_Chiralities_Consistent>
1

> <s_lp_Variant>
/home/yujie/leadopt/data/result/selection/sEH/lig_7b.sdf:1-1

> <s_i_glide_gridfile>
glide-grid_sEH

> <i_i_glide_lignum>
1

> <i_i_glide_rotatable_bonds>
8

> <r_i_docking_score>
-11.486295102951

> <r_i_glide_ligand_efficiency>
-0.337832208910322

> <r_i_glide_ligand_efficiency_sa>
-1.09444520955105

> <r_i_glide_ligand_efficiency_ln>
-2.53764476790655

> <r_i_glide_gscore>
-11.486295102951

> <r_i_glide_lipo>
-4.05895054805272

> <r_i_glide_hbond>
-0.72

> <r_i_glide_metal>
-0

> <r_i_glide_rewards>
-2.88122909369098

> <r_i_glide_evdw>
-49.1882400512695

> <r_i_glide_ecoul>
-11.3880243301392

> <r_i_glide_erotb>
0.541500190877096

> <r_i_glide_esite>
-0.2

> <r_i_glide_emodel>
-100.083048480291

> <r_i_glide_energy>
-60.5762643814087

> <r_i_glide_einternal>
8.73378753662109

> <i_i_glide_confnum>
72

> <i_i_glide_posenum>
56

> <r_i_glide_eff_state_penalty>
-0

$$$$
