/home/yujie/leadopt/data/result/selection/sEH/lig_6a.sdf:1
                    3D
 Schrodinger Suite 2020-3.
 49 52  0  0  1  0            999 V2000
   -1.6420  -15.8048   25.8952 O   0  0  0  0  0  0
   -1.3290  -15.2014   26.9150 C   0  0  0  0  0  0
   -0.1970  -14.2039   26.8902 C   0  0  0  0  0  0
    0.7179  -14.1964   25.8191 C   0  0  0  0  0  0
    1.7242  -13.2356   25.7198 C   0  0  0  0  0  0
    1.8266  -12.2922   26.7346 C   0  0  0  0  0  0
    2.6729  -11.2279   26.9243 N   0  0  0  0  0  0
    3.7824  -10.8044   26.0587 C   0  0  0  0  0  0
    5.1731  -11.2204   26.5298 C   0  0  0  0  0  0
    6.2659  -10.3965   26.2477 C   0  0  0  0  0  0
    7.5307  -10.7272   26.7276 C   0  0  0  0  0  0
    7.6967  -11.8762   27.4971 C   0  0  0  0  0  0
    6.6148  -12.7023   27.7796 C   0  0  0  0  0  0
    5.3589  -12.3834   27.2815 C   0  0  0  0  0  0
    2.4254  -10.6467   28.1213 C   0  0  0  0  0  0
    1.3641  -11.2988   28.6301 N   0  0  0  0  0  0
    3.0355   -9.7338   28.6478 O   0  0  0  0  0  0
    0.9790  -12.3148   27.8042 C   0  0  0  0  0  0
   -0.0555  -13.2388   27.8975 C   0  0  0  0  0  0
   -1.9983  -15.3625   28.0658 N   0  0  0  0  0  0
   -3.1441  -16.2490   28.2511 C   0  0  0  0  0  0
   -2.8435  -17.7511   28.1135 C   0  0  0  0  0  0
   -3.7434  -18.6467   27.4950 C   0  0  0  0  0  0
   -5.0207  -18.1623   26.7920 C   0  0  0  0  0  0
   -5.8076  -17.5179   27.6483 F   0  0  0  0  0  0
   -4.7068  -17.3337   25.7962 F   0  0  0  0  0  0
   -5.7254  -19.1679   26.2691 F   0  0  0  0  0  0
   -3.4402  -20.0179   27.4973 C   0  0  0  0  0  0
   -2.2445  -20.4916   28.0336 C   0  0  0  0  0  0
   -1.3295  -19.6007   28.5802 C   0  0  0  0  0  0
   -1.6306  -18.2420   28.6242 C   0  0  0  0  0  0
    0.6619  -14.9314   25.0395 H   0  0  0  0  0  0
    2.3958  -13.2398   24.8748 H   0  0  0  0  0  0
    3.6250  -11.1955   25.0540 H   0  0  0  0  0  0
    3.7498   -9.7178   25.9698 H   0  0  0  0  0  0
    6.1342   -9.4939   25.6687 H   0  0  0  0  0  0
    8.3767  -10.0895   26.5154 H   0  0  0  0  0  0
    8.6708  -12.1325   27.8822 H   0  0  0  0  0  0
    6.7395  -13.5918   28.3795 H   0  0  0  0  0  0
    4.5264  -13.0319   27.4974 H   0  0  0  0  0  0
    0.9511  -11.0861   29.5243 H   0  0  0  0  0  0
   -0.7489  -13.1861   28.7228 H   0  0  0  0  0  0
   -1.6281  -14.9329   28.9152 H   0  0  0  0  0  0
   -3.9263  -15.9098   27.5738 H   0  0  0  0  0  0
   -3.5315  -16.0789   29.2566 H   0  0  0  0  0  0
   -4.1169  -20.7325   27.0502 H   0  0  0  0  0  0
   -2.0216  -21.5492   28.0085 H   0  0  0  0  0  0
   -0.3972  -19.9626   28.9913 H   0  0  0  0  0  0
   -0.9205  -17.5702   29.0893 H   0  0  0  0  0  0
  1  2  2  0  0  0
  2  3  1  0  0  0
  2 20  1  0  0  0
  3 19  1  0  0  0
  3  4  2  0  0  0
  4  5  1  0  0  0
  4 32  1  0  0  0
  5  6  2  0  0  0
  5 33  1  0  0  0
  6  7  1  0  0  0
  6 18  1  0  0  0
  7  8  1  0  0  0
  7 15  1  0  0  0
  8  9  1  0  0  0
  8 34  1  0  0  0
  8 35  1  0  0  0
  9 14  1  0  0  0
  9 10  2  0  0  0
 10 11  1  0  0  0
 10 36  1  0  0  0
 11 12  2  0  0  0
 11 37  1  0  0  0
 12 13  1  0  0  0
 12 38  1  0  0  0
 13 14  2  0  0  0
 13 39  1  0  0  0
 14 40  1  0  0  0
 15 16  1  0  0  0
 15 17  2  0  0  0
 16 18  1  0  0  0
 16 41  1  0  0  0
 18 19  2  0  0  0
 19 42  1  0  0  0
 20 21  1  0  0  0
 20 43  1  0  0  0
 21 22  1  0  0  0
 21 44  1  0  0  0
 21 45  1  0  0  0
 22 31  1  0  0  0
 22 23  2  0  0  0
 23 24  1  0  0  0
 23 28  1  0  0  0
 24 25  1  0  0  0
 24 26  1  0  0  0
 24 27  1  0  0  0
 28 29  2  0  0  0
 28 46  1  0  0  0
 29 30  1  0  0  0
 29 47  1  0  0  0
 30 31  2  0  0  0
 30 48  1  0  0  0
 31 49  1  0  0  0
M  END
> <s_m_source_file>
/home/yujie/leadopt/data/result/selection/sEH/lig_6a.sdf

> <i_m_source_file_index>
1

> <i_lp_mmshare_version>
51139

> <i_f3d_flags>
0

> <s_epik_input>
W2NIXTFbY0hdW2NIXVtjSF1jKEMoRikoRilGKWMxW0NIMl1bTkhdQyg9TyljKFtjSF1bY0hdMilbY0hdYyhjMjMpW25IXWMoPU8pbjNbQ0gyXWM0W2NIXVtjSF1bY0hdW2NIXVtjSF00

> <s_epik_cmdline>
J2VwaWtfcHl0aG9uJywgJy1waHQnLCAnMi4wJywgJy1waCcsICc3LjAnLCAnLXRuJywgJzgnLCAnLW1hJywgJzIwMCcsICctaW1hZScsICc8aW5maWxlLm1hZT4nLCAnLW9tYWUnLCAnPG91dGZpbGUubWFlPic=

> <r_lp_tautomer_probability>
1

> <r_epik_Ionization_Penalty>
  0.0000

> <r_epik_Ionization_Penalty_Charging>
  0.0000

> <r_epik_Ionization_Penalty_Neutral>
  0.0000

> <r_epik_State_Penalty>
 -0.0000

> <r_epik_Charging_Adjusted_Penalty>
2.36287e-05

> <i_epik_Tot_Q>
0

> <i_epik_Tot_abs_Q>
0

> <s_lp_Force_Field>
OPLS3e

> <r_lp_Energy>
32.1604

> <b_lp_Chiralities_Consistent>
1

> <s_lp_Variant>
/home/yujie/leadopt/data/result/selection/sEH/lig_6a.sdf:1-1

> <s_i_glide_gridfile>
glide-grid_sEH

> <i_i_glide_lignum>
1

> <i_i_glide_rotatable_bonds>
7

> <r_i_docking_score>
-11.3775586421683

> <r_i_glide_ligand_efficiency>
-0.367018020715106

> <r_i_glide_ligand_efficiency_sa>
-1.15294330803369

> <r_i_glide_ligand_efficiency_ln>
-2.56598815410641

> <r_i_glide_gscore>
-11.3775586421683

> <r_i_glide_lipo>
-4.18431332845865

> <r_i_glide_hbond>
-0.72

> <r_i_glide_metal>
-0

> <r_i_glide_rewards>
-3.20861502873317

> <r_i_glide_evdw>
-45.4484939575195

> <r_i_glide_ecoul>
-9.6659984588623

> <r_i_glide_erotb>
0.657694181728873

> <r_i_glide_esite>
-0.2

> <r_i_glide_emodel>
-94.905157458693

> <r_i_glide_energy>
-55.1144924163818

> <r_i_glide_einternal>
4.30774688720703

> <i_i_glide_confnum>
73

> <i_i_glide_posenum>
351

> <r_i_glide_eff_state_penalty>
-0

$$$$
