/home/yujie/leadopt/data/result/selection/sEH/lig_11f.sdf:1
                    3D
 Schrodinger Suite 2020-3.
 58 62  0  0  1  0            999 V2000
   -1.3290  -15.3327   25.6729 O   0  0  0  0  0  0
   -0.9945  -14.9169   26.7839 C   0  0  0  0  0  0
    0.1761  -13.9733   26.9263 C   0  0  0  0  0  0
    1.1560  -13.9381   25.9266 C   0  0  0  0  0  0
    2.2602  -13.0918   25.9826 C   0  0  0  0  0  0
    2.3675  -12.2547   27.0986 C   0  0  0  0  0  0
    3.3500  -11.3488   27.4723 N   0  0  0  0  0  0
    4.5294  -10.9882   26.6987 C   0  0  0  0  0  0
    4.1898   -9.7913   25.8019 C   0  0  0  0  0  0
    4.9279   -9.5427   24.5135 C   0  0  0  0  0  0
    3.4700   -9.9843   24.4997 C   0  0  0  0  0  0
    2.9863  -10.7559   28.6591 C   0  0  0  0  0  0
    1.7909  -11.2763   29.0977 C   0  0  0  0  0  0
    1.3786  -12.2431   28.1280 C   0  0  0  0  0  0
    0.2790  -13.1039   28.0217 C   0  0  0  0  0  0
   -1.6724  -15.2446   27.8971 N   0  0  0  0  0  0
   -2.8965  -16.0527   27.9182 C   0  0  0  0  0  0
   -2.7441  -17.5867   27.9228 C   0  0  0  0  0  0
   -3.8364  -18.4306   27.6150 C   0  0  0  0  0  0
   -5.1688  -17.8739   27.0880 C   0  0  0  0  0  0
   -6.1197  -18.8017   26.9880 F   0  0  0  0  0  0
   -5.6375  -16.9330   27.8976 F   0  0  0  0  0  0
   -4.9864  -17.3449   25.8774 F   0  0  0  0  0  0
   -3.7091  -19.8134   27.8260 C   0  0  0  0  0  0
   -2.5215  -20.3761   28.2951 C   0  0  0  0  0  0
   -2.5272  -21.7346   28.6489 N   0  0  0  0  0  0
   -1.2338  -22.8847   28.2642 S   0  0  0  0  0  0
   -1.3907  -23.0280   26.3851 C   0  0  0  0  0  0
   -0.7491  -24.2227   25.7242 C   0  0  0  0  0  0
   -2.2620  -24.1474   25.8656 C   0  0  0  0  0  0
    0.0549  -22.2744   28.5923 O   0  0  0  0  0  0
   -1.6296  -24.1566   28.8769 O   0  0  0  0  0  0
   -1.4149  -19.5474   28.4880 C   0  0  0  0  0  0
   -1.5259  -18.1702   28.2987 C   0  0  0  0  0  0
    1.0726  -14.5877   25.0674 H   0  0  0  0  0  0
    3.0066  -13.1039   25.2031 H   0  0  0  0  0  0
    4.8622  -11.8551   26.1264 H   0  0  0  0  0  0
    5.3348  -10.7361   27.3905 H   0  0  0  0  0  0
    3.8791   -8.9331   26.3900 H   0  0  0  0  0  0
    5.6994  -10.2485   24.2038 H   0  0  0  0  0  0
    5.1728   -8.5154   24.2409 H   0  0  0  0  0  0
    2.6727   -9.2711   24.2968 H   0  0  0  0  0  0
    3.2260  -10.9903   24.1591 H   0  0  0  0  0  0
    3.6225   -9.9989   29.0965 H   0  0  0  0  0  0
    1.2782  -10.9956   30.0045 H   0  0  0  0  0  0
   -0.4809  -13.0808   28.7897 H   0  0  0  0  0  0
   -1.3302  -14.9336   28.8112 H   0  0  0  0  0  0
   -3.4311  -15.7827   28.8310 H   0  0  0  0  0  0
   -3.5385  -15.7382   27.0947 H   0  0  0  0  0  0
   -4.5550  -20.4635   27.6513 H   0  0  0  0  0  0
   -3.4335  -22.1715   28.7033 H   0  0  0  0  0  0
   -1.3415  -22.0546   25.9005 H   0  0  0  0  0  0
   -0.3003  -24.0927   24.7388 H   0  0  0  0  0  0
   -0.1735  -24.9112   26.3459 H   0  0  0  0  0  0
   -2.7584  -24.8105   26.5758 H   0  0  0  0  0  0
   -2.8853  -23.9544   24.9943 H   0  0  0  0  0  0
   -0.4848  -19.9403   28.8692 H   0  0  0  0  0  0
   -0.6688  -17.5517   28.5274 H   0  0  0  0  0  0
  1  2  2  0  0  0
  2  3  1  0  0  0
  2 16  1  0  0  0
  3 15  1  0  0  0
  3  4  2  0  0  0
  4  5  1  0  0  0
  4 35  1  0  0  0
  5  6  2  0  0  0
  5 36  1  0  0  0
  6  7  1  0  0  0
  6 14  1  0  0  0
  7  8  1  0  0  0
  7 12  1  0  0  0
  8  9  1  0  0  0
  8 37  1  0  0  0
  8 38  1  0  0  0
  9 11  1  0  0  0
  9 10  1  0  0  0
  9 39  1  0  0  0
 10 11  1  0  0  0
 10 40  1  0  0  0
 10 41  1  0  0  0
 11 42  1  0  0  0
 11 43  1  0  0  0
 12 13  2  0  0  0
 12 44  1  0  0  0
 13 14  1  0  0  0
 13 45  1  0  0  0
 14 15  2  0  0  0
 15 46  1  0  0  0
 16 17  1  0  0  0
 16 47  1  0  0  0
 17 18  1  0  0  0
 17 48  1  0  0  0
 17 49  1  0  0  0
 18 34  1  0  0  0
 18 19  2  0  0  0
 19 20  1  0  0  0
 19 24  1  0  0  0
 20 21  1  0  0  0
 20 22  1  0  0  0
 20 23  1  0  0  0
 24 25  2  0  0  0
 24 50  1  0  0  0
 25 26  1  0  0  0
 25 33  1  0  0  0
 26 27  1  0  0  0
 26 51  1  0  0  0
 27 28  1  0  0  0
 27 31  2  0  0  0
 27 32  2  0  0  0
 28 30  1  0  0  0
 28 29  1  0  0  0
 28 52  1  0  0  0
 29 30  1  0  0  0
 29 53  1  0  0  0
 29 54  1  0  0  0
 30 55  1  0  0  0
 30 56  1  0  0  0
 33 34  2  0  0  0
 33 57  1  0  0  0
 34 58  1  0  0  0
M  END
> <s_m_source_file>
/home/yujie/leadopt/data/result/selection/sEH/lig_11f.sdf

> <i_m_source_file_index>
1

> <i_lp_mmshare_version>
51139

> <i_f3d_flags>
0

> <s_epik_input>
W0NIMl0xW0NIMl1bQ0hdMVtDSDJdbjJbY0hdW2NIXWMoYzIzKVtjSF1jKFtjSF1bY0hdMylDKD1PKVtOSF1bQ0gyXWM0YyhDKEYpKEYpRilbY0hdYyhbY0hdW2NIXTQpW05IXVMoPU8pKD1PKVtDSF01W0NIMl1bQ0gyXTU=

> <s_epik_cmdline>
J2VwaWtfcHl0aG9uJywgJy1waHQnLCAnMi4wJywgJy1waCcsICc3LjAnLCAnLXRuJywgJzgnLCAnLW1hJywgJzIwMCcsICctaW1hZScsICc8aW5maWxlLm1hZT4nLCAnLW9tYWUnLCAnPG91dGZpbGUubWFlPic=

> <r_epik_Ionization_Penalty>
  0.0750

> <r_epik_Ionization_Penalty_Charging>
  0.0000

> <r_epik_Ionization_Penalty_Neutral>
  0.0750

> <r_epik_State_Penalty>
  0.0661

> <r_epik_Charging_Adjusted_Penalty>
0.0660634

> <i_epik_Tot_Q>
0

> <i_epik_Tot_abs_Q>
0

> <s_lp_Force_Field>
OPLS3e

> <r_lp_Energy>
47.0251

> <b_lp_Chiralities_Consistent>
1

> <s_lp_Variant>
/home/yujie/leadopt/data/result/selection/sEH/lig_11f.sdf:1-1

> <s_i_glide_gridfile>
glide-grid_sEH

> <i_i_glide_lignum>
1

> <i_i_glide_rotatable_bonds>
10

> <r_i_docking_score>
-12.2705777840935

> <r_i_glide_ligand_efficiency>
-0.360899346590986

> <r_i_glide_ligand_efficiency_sa>
-1.16917378091518

> <r_i_glide_ligand_efficiency_ln>
-2.71091481055502

> <r_i_glide_gscore>
-12.3366411840935

> <r_i_glide_lipo>
-4.87910222977302

> <r_i_glide_hbond>
-0.72

> <r_i_glide_metal>
-0

> <r_i_glide_rewards>
-2.43141763885041

> <r_i_glide_evdw>
-55.0923461914062

> <r_i_glide_ecoul>
-14.0658931732178

> <r_i_glide_erotb>
0.758379970082885

> <r_i_glide_esite>
-0.2

> <r_i_glide_emodel>
-122.465322667413

> <r_i_glide_energy>
-69.158239364624

> <r_i_glide_einternal>
6.01826667785645

> <i_i_glide_confnum>
27

> <i_i_glide_posenum>
276

> <r_i_glide_eff_state_penalty>
0.0660634

$$$$
