/home/yujie/leadopt/data/result/selection/sEH/lig_6n.sdf:1
                    3D
 Schrodinger Suite 2020-3.
 53 56  0  0  1  0            999 V2000
   -1.3289  -15.3326   25.7126 O   0  0  0  0  0  0
   -0.9080  -14.7759   26.7299 C   0  0  0  0  0  0
    0.4026  -14.0193   26.7149 C   0  0  0  0  0  0
    0.6305  -12.8845   27.5226 C   0  0  0  0  0  0
    1.8710  -12.2246   27.5068 C   0  0  0  0  0  0
    2.8931  -12.7323   26.6973 C   0  0  0  0  0  0
    4.2383  -12.4184   26.5525 N   0  0  0  0  0  0
    5.0215  -11.4659   27.3618 C   0  0  0  0  0  0
    5.9443  -10.5366   26.5700 C   0  0  0  0  0  0
    7.3129  -10.5121   26.8544 C   0  0  0  0  0  0
    8.1709   -9.7217   26.0917 C   0  0  0  0  0  0
    7.6661   -8.9401   25.0541 C   0  0  0  0  0  0
    6.2986   -8.9418   24.7814 C   0  0  0  0  0  0
    5.4249   -9.7351   25.5445 C   0  0  0  0  0  0
    4.0584   -9.7758   25.3707 O   0  0  0  0  0  0
    3.4711   -9.0750   24.2972 C   0  0  0  0  0  0
    4.8341  -13.2752   25.6736 C   0  0  0  0  0  0
    3.8530  -14.1072   25.2822 N   0  0  0  0  0  0
    6.0119  -13.3326   25.3235 O   0  0  0  0  0  0
    2.6654  -13.8110   25.8964 C   0  0  0  0  0  0
    1.4402  -14.4629   25.8793 C   0  0  0  0  0  0
   -1.5646  -14.8559   27.8972 N   0  0  0  0  0  0
   -2.7557  -15.6807   28.1345 C   0  0  0  0  0  0
   -2.5167  -17.2025   28.1258 C   0  0  0  0  0  0
   -3.4658  -18.1195   27.6128 C   0  0  0  0  0  0
   -4.7992  -17.6627   27.0069 C   0  0  0  0  0  0
   -5.4667  -16.9330   27.8972 F   0  0  0  0  0  0
   -4.5801  -16.9328   25.9120 F   0  0  0  0  0  0
   -5.5859  -18.6835   26.6582 F   0  0  0  0  0  0
   -3.1866  -19.4942   27.6727 C   0  0  0  0  0  0
   -1.9930  -19.9625   28.2136 C   0  0  0  0  0  0
   -1.0528  -19.0611   28.6972 C   0  0  0  0  0  0
   -1.3105  -17.6942   28.6488 C   0  0  0  0  0  0
   -0.1494  -12.5070   28.1709 H   0  0  0  0  0  0
    2.0302  -11.3716   28.1499 H   0  0  0  0  0  0
    4.3568  -10.8483   27.9661 H   0  0  0  0  0  0
    5.6163  -12.0445   28.0698 H   0  0  0  0  0  0
    7.7192  -11.1271   27.6446 H   0  0  0  0  0  0
    9.2299   -9.7243   26.2961 H   0  0  0  0  0  0
    8.3341   -8.3306   24.4632 H   0  0  0  0  0  0
    5.9320   -8.3179   23.9812 H   0  0  0  0  0  0
    2.4157   -9.3314   24.2974 H   0  0  0  0  0  0
    3.5667   -7.9945   24.4127 H   0  0  0  0  0  0
    3.8899   -9.3836   23.3384 H   0  0  0  0  0  0
    4.0196  -14.9113   24.6975 H   0  0  0  0  0  0
    1.3251  -15.3328   25.2581 H   0  0  0  0  0  0
   -1.1263  -14.5329   28.7636 H   0  0  0  0  0  0
   -3.5317  -15.3764   27.4375 H   0  0  0  0  0  0
   -3.1400  -15.4174   29.1200 H   0  0  0  0  0  0
   -3.8939  -20.2187   27.2958 H   0  0  0  0  0  0
   -1.7929  -21.0234   28.2525 H   0  0  0  0  0  0
   -0.1290  -19.4238   29.1243 H   0  0  0  0  0  0
   -0.5725  -17.0136   29.0504 H   0  0  0  0  0  0
  1  2  2  0  0  0
  2  3  1  0  0  0
  2 22  1  0  0  0
  3 21  1  0  0  0
  3  4  2  0  0  0
  4  5  1  0  0  0
  4 34  1  0  0  0
  5  6  2  0  0  0
  5 35  1  0  0  0
  6  7  1  0  0  0
  6 20  1  0  0  0
  7  8  1  0  0  0
  7 17  1  0  0  0
  8  9  1  0  0  0
  8 36  1  0  0  0
  8 37  1  0  0  0
  9 14  1  0  0  0
  9 10  2  0  0  0
 10 11  1  0  0  0
 10 38  1  0  0  0
 11 12  2  0  0  0
 11 39  1  0  0  0
 12 13  1  0  0  0
 12 40  1  0  0  0
 13 14  2  0  0  0
 13 41  1  0  0  0
 14 15  1  0  0  0
 15 16  1  0  0  0
 16 42  1  0  0  0
 16 43  1  0  0  0
 16 44  1  0  0  0
 17 18  1  0  0  0
 17 19  2  0  0  0
 18 20  1  0  0  0
 18 45  1  0  0  0
 20 21  2  0  0  0
 21 46  1  0  0  0
 22 23  1  0  0  0
 22 47  1  0  0  0
 23 24  1  0  0  0
 23 48  1  0  0  0
 23 49  1  0  0  0
 24 33  1  0  0  0
 24 25  2  0  0  0
 25 26  1  0  0  0
 25 30  1  0  0  0
 26 27  1  0  0  0
 26 28  1  0  0  0
 26 29  1  0  0  0
 30 31  2  0  0  0
 30 50  1  0  0  0
 31 32  1  0  0  0
 31 51  1  0  0  0
 32 33  2  0  0  0
 32 52  1  0  0  0
 33 53  1  0  0  0
M  END
> <s_m_source_file>
/home/yujie/leadopt/data/result/selection/sEH/lig_6n.sdf

> <i_m_source_file_index>
1

> <i_lp_mmshare_version>
51139

> <i_f3d_flags>
0

> <s_epik_input>
W2NIXTFbY0hdW2NIXVtjSF1jKEMoRikoRilGKWMxW0NIMl1bTkhdQyg9TyljKFtjSF1bY0hdMilbY0hdYyhjMjMpW25IXWMoPU8pbjNbQ0gyXWM0W2NIXVtjSF1bY0hdW2NIXWM0T1tDSDNd

> <s_epik_cmdline>
J2VwaWtfcHl0aG9uJywgJy1waHQnLCAnMi4wJywgJy1waCcsICc3LjAnLCAnLXRuJywgJzgnLCAnLW1hJywgJzIwMCcsICctaW1hZScsICc8aW5maWxlLm1hZT4nLCAnLW9tYWUnLCAnPG91dGZpbGUubWFlPic=

> <r_lp_tautomer_probability>
1

> <r_epik_Ionization_Penalty>
  0.0000

> <r_epik_Ionization_Penalty_Charging>
  0.0000

> <r_epik_Ionization_Penalty_Neutral>
  0.0000

> <r_epik_State_Penalty>
 -0.0000

> <r_epik_Charging_Adjusted_Penalty>
2.36287e-05

> <i_epik_Tot_Q>
0

> <i_epik_Tot_abs_Q>
0

> <s_lp_Force_Field>
OPLS3e

> <r_lp_Energy>
35.9611

> <b_lp_Chiralities_Consistent>
1

> <s_lp_Variant>
/home/yujie/leadopt/data/result/selection/sEH/lig_6n.sdf:1-1

> <s_i_glide_gridfile>
glide-grid_sEH

> <i_i_glide_lignum>
1

> <i_i_glide_rotatable_bonds>
8

> <r_i_docking_score>
-10.811139018108

> <r_i_glide_ligand_efficiency>
-0.327610273275999

> <r_i_glide_ligand_efficiency_sa>
-1.05082119716735

> <r_i_glide_ligand_efficiency_ln>
-2.40434134054521

> <r_i_glide_gscore>
-10.811139018108

> <r_i_glide_lipo>
-3.93962602754136

> <r_i_glide_hbond>
-0.717591140816003

> <r_i_glide_metal>
-0

> <r_i_glide_rewards>
-2.45813648753526

> <r_i_glide_evdw>
-43.2871131896973

> <r_i_glide_ecoul>
-12.7503499984741

> <r_i_glide_erotb>
0.581122797040634

> <r_i_glide_esite>
-0.2

> <r_i_glide_emodel>
-90.4193045885608

> <r_i_glide_energy>
-56.0374631881714

> <r_i_glide_einternal>
6.98187494277954

> <i_i_glide_confnum>
33

> <i_i_glide_posenum>
320

> <r_i_glide_eff_state_penalty>
-0

$$$$
