/home/yujie/leadopt/data/result/selection/sEH/lig_11l.sdf:1
                    3D
 Schrodinger Suite 2020-3.
 61 64  0  0  1  0            999 V2000
   -1.3288  -15.3329   25.7437 O   0  0  0  0  0  0
   -1.0571  -14.7336   26.7853 C   0  0  0  0  0  0
    0.0550  -13.7065   26.8140 C   0  0  0  0  0  0
    0.6800  -13.3495   25.6109 C   0  0  0  0  0  0
    1.6823  -12.3879   25.5363 C   0  0  0  0  0  0
    2.0729  -11.7792   26.7339 C   0  0  0  0  0  0
    3.0344  -10.8111   26.9867 N   0  0  0  0  0  0
    3.8634  -10.1475   25.9780 C   0  0  0  0  0  0
    4.8901  -11.0633   25.2743 C   0  0  0  0  0  0
    5.3135  -10.7524   24.0206 N   0  0  0  0  0  0
    6.1771  -11.6522   23.2499 C   0  0  0  0  0  0
    4.9112   -9.5610   23.2653 C   0  0  0  0  0  0
    5.2901  -12.0662   25.8693 O   0  0  0  0  0  0
    3.0423  -10.5351   28.3355 C   0  0  0  0  0  0
    2.1045  -11.3129   28.9815 C   0  0  0  0  0  0
    1.4710  -12.1168   27.9816 C   0  0  0  0  0  0
    0.4582  -13.0854   28.0080 C   0  0  0  0  0  0
   -1.7918  -14.9038   27.8971 N   0  0  0  0  0  0
   -2.9219  -15.8310   28.0360 C   0  0  0  0  0  0
   -2.5525  -17.3235   28.0573 C   0  0  0  0  0  0
   -3.3944  -18.3316   27.5292 C   0  0  0  0  0  0
   -4.7429  -18.0040   26.8713 C   0  0  0  0  0  0
   -5.4125  -19.0972   26.5017 F   0  0  0  0  0  0
   -5.5139  -17.3322   27.7246 F   0  0  0  0  0  0
   -4.5536  -17.2625   25.7791 F   0  0  0  0  0  0
   -2.9920  -19.6753   27.6273 C   0  0  0  0  0  0
   -1.7768  -20.0268   28.2194 C   0  0  0  0  0  0
   -1.3334  -21.3488   28.3496 N   0  0  0  0  0  0
   -2.4010  -22.7336   28.6148 S   0  0  0  0  0  0
   -2.7039  -23.3481   26.8467 C   0  0  0  0  0  0
   -1.5476  -24.0450   26.1669 C   0  0  0  0  0  0
   -2.7475  -24.8443   26.6337 C   0  0  0  0  0  0
   -1.5907  -23.7215   29.3344 O   0  0  0  0  0  0
   -3.6575  -22.2356   29.1851 O   0  0  0  0  0  0
   -0.9450  -19.0230   28.6982 C   0  0  0  0  0  0
   -1.3264  -17.6913   28.6240 C   0  0  0  0  0  0
    0.3818  -13.8206   24.6835 H   0  0  0  0  0  0
    2.1386  -12.1367   24.5892 H   0  0  0  0  0  0
    4.4086   -9.3319   26.4551 H   0  0  0  0  0  0
    3.1694   -9.7103   25.2591 H   0  0  0  0  0  0
    5.6585  -11.9962   22.3539 H   0  0  0  0  0  0
    6.4876  -12.5364   23.8108 H   0  0  0  0  0  0
    7.0828  -11.1323   22.9335 H   0  0  0  0  0  0
    4.4763   -8.7724   23.8782 H   0  0  0  0  0  0
    5.7783   -9.1238   22.7654 H   0  0  0  0  0  0
    4.1899   -9.8323   22.4925 H   0  0  0  0  0  0
    3.7317   -9.8029   28.7303 H   0  0  0  0  0  0
    1.9033  -11.3044   30.0426 H   0  0  0  0  0  0
   -0.0004  -13.3322   28.9541 H   0  0  0  0  0  0
   -1.4482  -14.5347   28.7861 H   0  0  0  0  0  0
   -3.4146  -15.6035   28.9828 H   0  0  0  0  0  0
   -3.6546  -15.6043   27.2653 H   0  0  0  0  0  0
   -3.6270  -20.4565   27.2386 H   0  0  0  0  0  0
   -0.3838  -21.4749   28.6696 H   0  0  0  0  0  0
   -3.3474  -22.6728   26.2819 H   0  0  0  0  0  0
   -1.3991  -23.8939   25.0989 H   0  0  0  0  0  0
   -0.6033  -24.1402   26.7058 H   0  0  0  0  0  0
   -2.6413  -25.5030   27.4974 H   0  0  0  0  0  0
   -3.4316  -25.2514   25.8903 H   0  0  0  0  0  0
   -0.0121  -19.2735   29.1789 H   0  0  0  0  0  0
   -0.6672  -16.9429   29.0415 H   0  0  0  0  0  0
  1  2  2  0  0  0
  2  3  1  0  0  0
  2 18  1  0  0  0
  3 17  1  0  0  0
  3  4  2  0  0  0
  4  5  1  0  0  0
  4 37  1  0  0  0
  5  6  2  0  0  0
  5 38  1  0  0  0
  6  7  1  0  0  0
  6 16  1  0  0  0
  7  8  1  0  0  0
  7 14  1  0  0  0
  8  9  1  0  0  0
  8 39  1  0  0  0
  8 40  1  0  0  0
  9 10  1  0  0  0
  9 13  2  0  0  0
 10 11  1  0  0  0
 10 12  1  0  0  0
 11 41  1  0  0  0
 11 42  1  0  0  0
 11 43  1  0  0  0
 12 44  1  0  0  0
 12 45  1  0  0  0
 12 46  1  0  0  0
 14 15  2  0  0  0
 14 47  1  0  0  0
 15 16  1  0  0  0
 15 48  1  0  0  0
 16 17  2  0  0  0
 17 49  1  0  0  0
 18 19  1  0  0  0
 18 50  1  0  0  0
 19 20  1  0  0  0
 19 51  1  0  0  0
 19 52  1  0  0  0
 20 36  1  0  0  0
 20 21  2  0  0  0
 21 22  1  0  0  0
 21 26  1  0  0  0
 22 23  1  0  0  0
 22 24  1  0  0  0
 22 25  1  0  0  0
 26 27  2  0  0  0
 26 53  1  0  0  0
 27 28  1  0  0  0
 27 35  1  0  0  0
 28 29  1  0  0  0
 28 54  1  0  0  0
 29 30  1  0  0  0
 29 33  2  0  0  0
 29 34  2  0  0  0
 30 32  1  0  0  0
 30 31  1  0  0  0
 30 55  1  0  0  0
 31 32  1  0  0  0
 31 56  1  0  0  0
 31 57  1  0  0  0
 32 58  1  0  0  0
 32 59  1  0  0  0
 35 36  2  0  0  0
 35 60  1  0  0  0
 36 61  1  0  0  0
M  END
> <s_m_source_file>
/home/yujie/leadopt/data/result/selection/sEH/lig_11l.sdf

> <i_m_source_file_index>
1

> <i_lp_mmshare_version>
51139

> <i_f3d_flags>
0

> <s_epik_input>
W0NIM11OKFtDSDNdKUMoPU8pW0NIMl1uMVtjSF1bY0hdYyhjMTIpW2NIXWMoW2NIXVtjSF0yKUMoPU8pW05IXVtDSDJdYzNjKEMoRikoRilGKVtjSF1jKFtjSF1bY0hdMylbTkhdUyg9TykoPU8pW0NIXTRbQ0gyXVtDSDJdNA==

> <s_epik_cmdline>
J2VwaWtfcHl0aG9uJywgJy1waHQnLCAnMi4wJywgJy1waCcsICc3LjAnLCAnLXRuJywgJzgnLCAnLW1hJywgJzIwMCcsICctaW1hZScsICc8aW5maWxlLm1hZT4nLCAnLW9tYWUnLCAnPG91dGZpbGUubWFlPic=

> <r_epik_Ionization_Penalty>
  0.0750

> <r_epik_Ionization_Penalty_Charging>
  0.0000

> <r_epik_Ionization_Penalty_Neutral>
  0.0750

> <r_epik_State_Penalty>
  0.0661

> <r_epik_Charging_Adjusted_Penalty>
0.0660634

> <i_epik_Tot_Q>
0

> <i_epik_Tot_abs_Q>
0

> <s_lp_Force_Field>
OPLS3e

> <r_lp_Energy>
41.6351

> <b_lp_Chiralities_Consistent>
1

> <s_lp_Variant>
/home/yujie/leadopt/data/result/selection/sEH/lig_11l.sdf:1-1

> <s_i_glide_gridfile>
glide-grid_sEH

> <i_i_glide_lignum>
1

> <i_i_glide_rotatable_bonds>
11

> <r_i_docking_score>
-12.5694270220421

> <r_i_glide_ligand_efficiency>
-0.349150750612279

> <r_i_glide_ligand_efficiency_sa>
-1.15287037604159

> <r_i_glide_ligand_efficiency_ln>
-2.74230938953552

> <r_i_glide_gscore>
-12.6354904220421

> <r_i_glide_lipo>
-4.53077180941402

> <r_i_glide_hbond>
-0.72

> <r_i_glide_metal>
-0

> <r_i_glide_rewards>
-2.69965486041299

> <r_i_glide_evdw>
-57.3604774475098

> <r_i_glide_ecoul>
-15.2991285324097

> <r_i_glide_erotb>
0.677829400021895

> <r_i_glide_esite>
-0.2

> <r_i_glide_emodel>
-128.957935258213

> <r_i_glide_energy>
-72.6596059799194

> <r_i_glide_einternal>
7.28651905059814

> <i_i_glide_confnum>
272

> <i_i_glide_posenum>
54

> <r_i_glide_eff_state_penalty>
0.0660634

$$$$
