/home/yujie/leadopt/data/result/selection/sEH/lig_6b.sdf:1
                    3D
 Schrodinger Suite 2020-3.
 55 58  0  0  1  0            999 V2000
   -1.5350  -15.7333   25.8398 O   0  0  0  0  0  0
   -1.3197  -15.0553   26.8366 C   0  0  0  0  0  0
   -0.1413  -14.1180   26.8814 C   0  0  0  0  0  0
    0.8525  -14.2019   25.8859 C   0  0  0  0  0  0
    1.9609  -13.3561   25.8934 C   0  0  0  0  0  0
    2.0744  -12.4372   26.9275 C   0  0  0  0  0  0
    3.0577  -11.5356   27.2437 N   0  0  0  0  0  0
    4.2926  -11.2945   26.4946 C   0  0  0  0  0  0
    5.3716  -12.3899   26.7001 C   0  0  0  0  0  0
    6.5509  -12.2239   25.7161 C   0  0  0  0  0  0
    7.3740  -10.9516   26.0173 C   0  0  0  0  0  0
    7.8716  -10.9422   27.4778 C   0  0  0  0  0  0
    6.7433  -11.1931   28.4994 C   0  0  0  0  0  0
    5.9350  -12.4586   28.1417 C   0  0  0  0  0  0
    2.7770  -10.9248   28.4222 C   0  0  0  0  0  0
    1.5687  -11.4011   28.7887 N   0  0  0  0  0  0
    3.4705  -10.1330   29.0412 O   0  0  0  0  0  0
    1.1265  -12.3472   27.9058 C   0  0  0  0  0  0
   -0.0022  -13.1593   27.8989 C   0  0  0  0  0  0
   -2.1274  -15.1097   27.9014 N   0  0  0  0  0  0
   -3.2656  -16.0231   28.0314 C   0  0  0  0  0  0
   -2.9128  -17.5223   28.0151 C   0  0  0  0  0  0
   -3.7566  -18.4900   27.4233 C   0  0  0  0  0  0
   -5.0502  -18.1013   26.6870 C   0  0  0  0  0  0
   -5.7286  -19.1610   26.2409 F   0  0  0  0  0  0
   -5.8580  -17.4218   27.4977 F   0  0  0  0  0  0
   -4.7625  -17.3375   25.6324 F   0  0  0  0  0  0
   -3.3881  -19.8436   27.4971 C   0  0  0  0  0  0
   -2.1897  -20.2336   28.0924 C   0  0  0  0  0  0
   -1.3362  -19.2759   28.6272 C   0  0  0  0  0  0
   -1.6986  -17.9332   28.5888 C   0  0  0  0  0  0
    0.7917  -14.9324   25.0970 H   0  0  0  0  0  0
    2.7147  -13.4439   25.1231 H   0  0  0  0  0  0
    4.0270  -11.2454   25.4372 H   0  0  0  0  0  0
    4.6885  -10.3086   26.7432 H   0  0  0  0  0  0
    4.9194  -13.3597   26.4784 H   0  0  0  0  0  0
    7.2034  -13.0965   25.7639 H   0  0  0  0  0  0
    6.1797  -12.1721   24.6910 H   0  0  0  0  0  0
    8.2234  -10.8901   25.3367 H   0  0  0  0  0  0
    6.7741  -10.0604   25.8272 H   0  0  0  0  0  0
    8.6230  -11.7251   27.5905 H   0  0  0  0  0  0
    8.3698   -9.9989   27.6972 H   0  0  0  0  0  0
    7.1621  -11.2927   29.4986 H   0  0  0  0  0  0
    6.0894  -10.3211   28.5429 H   0  0  0  0  0  0
    5.1265  -12.5658   28.8645 H   0  0  0  0  0  0
    6.5681  -13.3394   28.2573 H   0  0  0  0  0  0
    1.0917  -11.1307   29.6353 H   0  0  0  0  0  0
   -0.7407  -13.0588   28.6859 H   0  0  0  0  0  0
   -1.8211  -14.6645   28.7686 H   0  0  0  0  0  0
   -3.9803  -15.7499   27.2551 H   0  0  0  0  0  0
   -3.7592  -15.8075   28.9822 H   0  0  0  0  0  0
   -4.0151  -20.6123   27.0680 H   0  0  0  0  0  0
   -1.9146  -21.2801   28.1300 H   0  0  0  0  0  0
   -0.4040  -19.5705   29.0954 H   0  0  0  0  0  0
   -1.0327  -17.2077   29.0373 H   0  0  0  0  0  0
  1  2  2  0  0  0
  2  3  1  0  0  0
  2 20  1  0  0  0
  3 19  1  0  0  0
  3  4  2  0  0  0
  4  5  1  0  0  0
  4 32  1  0  0  0
  5  6  2  0  0  0
  5 33  1  0  0  0
  6  7  1  0  0  0
  6 18  1  0  0  0
  7  8  1  0  0  0
  7 15  1  0  0  0
  8  9  1  0  0  0
  8 34  1  0  0  0
  8 35  1  0  0  0
  9 14  1  0  0  0
  9 10  1  0  0  0
  9 36  1  0  0  0
 10 11  1  0  0  0
 10 37  1  0  0  0
 10 38  1  0  0  0
 11 12  1  0  0  0
 11 39  1  0  0  0
 11 40  1  0  0  0
 12 13  1  0  0  0
 12 41  1  0  0  0
 12 42  1  0  0  0
 13 14  1  0  0  0
 13 43  1  0  0  0
 13 44  1  0  0  0
 14 45  1  0  0  0
 14 46  1  0  0  0
 15 16  1  0  0  0
 15 17  2  0  0  0
 16 18  1  0  0  0
 16 47  1  0  0  0
 18 19  2  0  0  0
 19 48  1  0  0  0
 20 21  1  0  0  0
 20 49  1  0  0  0
 21 22  1  0  0  0
 21 50  1  0  0  0
 21 51  1  0  0  0
 22 31  1  0  0  0
 22 23  2  0  0  0
 23 24  1  0  0  0
 23 28  1  0  0  0
 24 25  1  0  0  0
 24 26  1  0  0  0
 24 27  1  0  0  0
 28 29  2  0  0  0
 28 52  1  0  0  0
 29 30  1  0  0  0
 29 53  1  0  0  0
 30 31  2  0  0  0
 30 54  1  0  0  0
 31 55  1  0  0  0
M  END
> <s_m_source_file>
/home/yujie/leadopt/data/result/selection/sEH/lig_6b.sdf

> <i_m_source_file_index>
1

> <i_lp_mmshare_version>
51139

> <i_f3d_flags>
0

> <s_epik_input>
W2NIXTFbY0hdW2NIXVtjSF1jKEMoRikoRilGKWMxW0NIMl1bTkhdQyg9TyljKFtjSF1bY0hdMilbY0hdYyhjMjMpW25IXWMoPU8pbjNbQ0gyXVtDSF00W0NIMl1bQ0gyXVtDSDJdW0NIMl1bQ0gyXTQ=

> <s_epik_cmdline>
J2VwaWtfcHl0aG9uJywgJy1waHQnLCAnMi4wJywgJy1waCcsICc3LjAnLCAnLXRuJywgJzgnLCAnLW1hJywgJzIwMCcsICctaW1hZScsICc8aW5maWxlLm1hZT4nLCAnLW9tYWUnLCAnPG91dGZpbGUubWFlPic=

> <r_lp_tautomer_probability>
1

> <r_epik_Ionization_Penalty>
  0.0000

> <r_epik_Ionization_Penalty_Charging>
  0.0000

> <r_epik_Ionization_Penalty_Neutral>
  0.0000

> <r_epik_State_Penalty>
 -0.0000

> <r_epik_Charging_Adjusted_Penalty>
1.18717e-05

> <i_epik_Tot_Q>
0

> <i_epik_Tot_abs_Q>
0

> <s_lp_Force_Field>
OPLS3e

> <r_lp_Energy>
30.7669

> <b_lp_Chiralities_Consistent>
1

> <s_lp_Variant>
/home/yujie/leadopt/data/result/selection/sEH/lig_6b.sdf:1-1

> <s_i_glide_gridfile>
glide-grid_sEH

> <i_i_glide_lignum>
1

> <i_i_glide_rotatable_bonds>
7

> <r_i_docking_score>
-11.416181533488

> <r_i_glide_ligand_efficiency>
-0.368263920435097

> <r_i_glide_ligand_efficiency_sa>
-1.15685715330441

> <r_i_glide_ligand_efficiency_ln>
-2.57469879974848

> <r_i_glide_gscore>
-11.416181533488

> <r_i_glide_lipo>
-4.19496606551082

> <r_i_glide_hbond>
-0.731970630740294

> <r_i_glide_metal>
-0

> <r_i_glide_rewards>
-3.15528888067216

> <r_i_glide_evdw>
-46.7647666931152

> <r_i_glide_ecoul>
-9.57875728607178

> <r_i_glide_erotb>
0.641095971001797

> <r_i_glide_esite>
-0.2

> <r_i_glide_emodel>
-97.3593912975269

> <r_i_glide_energy>
-56.343523979187

> <r_i_glide_einternal>
4.39309787750244

> <i_i_glide_confnum>
142

> <i_i_glide_posenum>
127

> <r_i_glide_eff_state_penalty>
-0

$$$$
