/home/yujie/leadopt/data/result/selection/sEH/lig_11n.sdf:1
                    3D
 Schrodinger Suite 2020-3.
 63 67  0  0  1  0            999 V2000
   -1.5334  -15.7339   25.8839 O   0  0  0  0  0  0
   -1.3252  -14.9661   26.8177 C   0  0  0  0  0  0
   -0.1977  -13.9692   26.7405 C   0  0  0  0  0  0
    0.3757  -13.6784   25.4970 C   0  0  0  0  0  0
    1.3970  -12.7506   25.3316 C   0  0  0  0  0  0
    1.8888  -12.1442   26.4890 C   0  0  0  0  0  0
    2.8923  -11.2088   26.6689 N   0  0  0  0  0  0
    3.6817  -10.6019   25.5907 C   0  0  0  0  0  0
    5.0324  -11.2633   25.3529 C   0  0  0  0  0  0
    5.1188  -12.4267   24.5821 C   0  0  0  0  0  0
    6.3575  -13.0224   24.3460 C   0  0  0  0  0  0
    6.4367  -14.1327   23.5822 F   0  0  0  0  0  0
    7.5160  -12.4686   24.8896 C   0  0  0  0  0  0
    7.4377  -11.3102   25.6623 C   0  0  0  0  0  0
    6.2000  -10.7063   25.8879 C   0  0  0  0  0  0
    3.0668  -11.0035   28.0270 C   0  0  0  0  0  0
    4.1611  -10.1438   28.5695 C   0  0  0  0  0  0
    2.1097  -11.7031   28.7219 C   0  0  0  0  0  0
    1.3562  -12.4433   27.7754 C   0  0  0  0  0  0
    0.2951  -13.3409   27.8881 C   0  0  0  0  0  0
   -2.1215  -14.9473   27.8973 N   0  0  0  0  0  0
   -3.2181  -15.8942   28.1172 C   0  0  0  0  0  0
   -2.7961  -17.3715   28.1922 C   0  0  0  0  0  0
   -3.6284  -18.4161   27.7393 C   0  0  0  0  0  0
   -5.0126  -18.1485   27.1270 C   0  0  0  0  0  0
   -4.8680  -17.5807   25.9291 F   0  0  0  0  0  0
   -5.7233  -19.2647   26.9627 F   0  0  0  0  0  0
   -5.7285  -17.3330   27.8967 F   0  0  0  0  0  0
   -3.1653  -19.7384   27.8386 C   0  0  0  0  0  0
   -1.8776  -20.0539   28.2964 C   0  0  0  0  0  0
   -1.3293  -21.3071   28.3895 N   0  5  0  0  0  0
   -2.1472  -22.6346   28.4049 S   0  0  0  0  0  0
   -2.6548  -22.8259   26.5919 C   0  0  0  0  0  0
   -3.4233  -24.0627   26.1895 C   0  0  0  0  0  0
   -4.1288  -22.7273   26.2941 C   0  0  0  0  0  0
   -3.3841  -22.5312   29.1895 O   0  0  0  0  0  0
   -1.2907  -23.7905   28.6857 O   0  0  0  0  0  0
   -1.0706  -18.9951   28.6971 C   0  0  0  0  0  0
   -1.5179  -17.6830   28.6687 C   0  0  0  0  0  0
    0.0136  -14.1651   24.6039 H   0  0  0  0  0  0
    1.7946  -12.5358   24.3498 H   0  0  0  0  0  0
    3.1011  -10.6352   24.6676 H   0  0  0  0  0  0
    3.7947   -9.5363   25.7885 H   0  0  0  0  0  0
    4.2301  -12.8664   24.1561 H   0  0  0  0  0  0
    8.4721  -12.9354   24.7052 H   0  0  0  0  0  0
    8.3348  -10.8768   26.0806 H   0  0  0  0  0  0
    6.1556   -9.8038   26.4784 H   0  0  0  0  0  0
    3.8714   -9.7334   29.5330 H   0  0  0  0  0  0
    5.0808  -10.7101   28.7191 H   0  0  0  0  0  0
    4.3920   -9.3330   27.8954 H   0  0  0  0  0  0
    1.9969  -11.7078   29.7961 H   0  0  0  0  0  0
   -0.1038  -13.5534   28.8648 H   0  0  0  0  0  0
   -1.8212  -14.4479   28.7322 H   0  0  0  0  0  0
   -3.9429  -15.7315   27.3206 H   0  0  0  0  0  0
   -3.7148  -15.6276   29.0519 H   0  0  0  0  0  0
   -3.8148  -20.5336   27.5249 H   0  0  0  0  0  0
   -1.9010  -22.4205   25.9205 H   0  0  0  0  0  0
   -3.6041  -24.8260   26.9472 H   0  0  0  0  0  0
   -3.2387  -24.4912   25.2048 H   0  0  0  0  0  0
   -4.4056  -22.1338   25.4256 H   0  0  0  0  0  0
   -4.8414  -22.5904   27.1079 H   0  0  0  0  0  0
   -0.0893  -19.1971   29.0974 H   0  0  0  0  0  0
   -0.8565  -16.9070   29.0279 H   0  0  0  0  0  0
  1  2  2  0  0  0
  2  3  1  0  0  0
  2 21  1  0  0  0
  3 20  1  0  0  0
  3  4  2  0  0  0
  4  5  1  0  0  0
  4 40  1  0  0  0
  5  6  2  0  0  0
  5 41  1  0  0  0
  6  7  1  0  0  0
  6 19  1  0  0  0
  7  8  1  0  0  0
  7 16  1  0  0  0
  8  9  1  0  0  0
  8 42  1  0  0  0
  8 43  1  0  0  0
  9 15  1  0  0  0
  9 10  2  0  0  0
 10 11  1  0  0  0
 10 44  1  0  0  0
 11 12  1  0  0  0
 11 13  2  0  0  0
 13 14  1  0  0  0
 13 45  1  0  0  0
 14 15  2  0  0  0
 14 46  1  0  0  0
 15 47  1  0  0  0
 16 17  1  0  0  0
 16 18  2  0  0  0
 17 48  1  0  0  0
 17 49  1  0  0  0
 17 50  1  0  0  0
 18 19  1  0  0  0
 18 51  1  0  0  0
 19 20  2  0  0  0
 20 52  1  0  0  0
 21 22  1  0  0  0
 21 53  1  0  0  0
 22 23  1  0  0  0
 22 54  1  0  0  0
 22 55  1  0  0  0
 23 39  1  0  0  0
 23 24  2  0  0  0
 24 25  1  0  0  0
 24 29  1  0  0  0
 25 26  1  0  0  0
 25 27  1  0  0  0
 25 28  1  0  0  0
 29 30  2  0  0  0
 29 56  1  0  0  0
 30 31  1  0  0  0
 30 38  1  0  0  0
 31 32  1  0  0  0
 32 33  1  0  0  0
 32 36  2  0  0  0
 32 37  2  0  0  0
 33 35  1  0  0  0
 33 34  1  0  0  0
 33 57  1  0  0  0
 34 35  1  0  0  0
 34 58  1  0  0  0
 34 59  1  0  0  0
 35 60  1  0  0  0
 35 61  1  0  0  0
 38 39  2  0  0  0
 38 62  1  0  0  0
 39 63  1  0  0  0
M  CHG  1  31  -1
M  END
> <s_m_source_file>
/home/yujie/leadopt/data/result/selection/sEH/lig_11n.sdf

> <i_m_source_file_index>
1

> <i_lp_mmshare_version>
51139

> <i_f3d_flags>
0

> <s_epik_input>
W0NIMl0xW0NIMl1bQ0hdMVMoPU8pKD1PKVtOSF1jKFtjSF1bY0hdMilbY0hdYyhDKEYpKEYpRiljMltDSDJdW05IXUMoPU8pYyhbY0hdW2NIXTMpW2NIXWMoYzM0KVtjSF1jKFtDSDNdKW40W0NIMl1jNVtjSF1jKEYpW2NIXVtjSF1bY0hdNQ==

> <s_epik_cmdline>
J2VwaWtfcHl0aG9uJywgJy1waHQnLCAnMi4wJywgJy1waCcsICc3LjAnLCAnLXRuJywgJzgnLCAnLW1hJywgJzIwMCcsICctaW1hZScsICc8aW5maWxlLm1hZT4nLCAnLW9tYWUnLCAnPG91dGZpbGUubWFlPic=

> <r_epik_Ionization_Penalty>
  1.2618

> <r_epik_Ionization_Penalty_Charging>
  1.2618

> <r_epik_Ionization_Penalty_Neutral>
  0.0000

> <r_epik_State_Penalty>
  1.3325

> <r_epik_Charging_Adjusted_Penalty>
2.59425

> <i_epik_Tot_Q>
-1

> <i_epik_Tot_abs_Q>
1

> <s_lp_Force_Field>
OPLS3e

> <r_lp_Energy>
52.8836

> <b_lp_Chiralities_Consistent>
1

> <s_lp_Variant>
/home/yujie/leadopt/data/result/selection/sEH/lig_11n.sdf:1-2

> <s_i_glide_gridfile>
glide-grid_sEH

> <i_i_glide_lignum>
2

> <i_i_glide_rotatable_bonds>
10

> <r_i_docking_score>
-11.2170209081909

> <r_i_glide_ligand_efficiency>
-0.287615920722843

> <r_i_glide_ligand_efficiency_sa>
-0.975366400357256

> <r_i_glide_ligand_efficiency_ln>
-2.40524769678986

> <r_i_glide_gscore>
-12.5494909081909

> <r_i_glide_lipo>
-5.09587548584733

> <r_i_glide_hbond>
-0.739836760586178

> <r_i_glide_metal>
-0

> <r_i_glide_rewards>
-2.53235453743782

> <r_i_glide_evdw>
-52.5236778259277

> <r_i_glide_ecoul>
-12.5109710693359

> <r_i_glide_erotb>
0.521405427377232

> <r_i_glide_esite>
-0.2

> <r_i_glide_emodel>
-113.078254974385

> <r_i_glide_energy>
-65.0346488952637

> <r_i_glide_einternal>
4.85863828659058

> <i_i_glide_confnum>
129

> <i_i_glide_posenum>
96

> <r_i_glide_eff_state_penalty>
1.33247

$$$$
