/home/yujie/leadopt/data/result/selection/sEH/lig_8g.sdf:1
                    3D
 Schrodinger Suite 2020-3.
 58 61  0  0  1  0            999 V2000
   -1.3290  -15.3332   25.6701 O   0  0  0  0  0  0
   -0.9957  -14.9250   26.7814 C   0  0  0  0  0  0
    0.1363  -13.9310   26.9076 C   0  0  0  0  0  0
    1.0798  -13.8288   25.8773 C   0  0  0  0  0  0
    2.0625  -12.8412   25.8515 C   0  0  0  0  0  0
    2.0737  -11.9260   26.9093 C   0  0  0  0  0  0
    2.8510  -10.8011   27.1328 N   0  0  0  0  0  0
    3.9384  -10.3233   26.2888 C   0  0  0  0  0  0
    5.2804  -10.9638   26.6140 C   0  0  0  0  0  0
    5.9832  -11.6675   25.6308 C   0  0  0  0  0  0
    7.2162  -12.2462   25.9307 C   0  0  0  0  0  0
    7.8893  -12.9327   24.9807 F   0  0  0  0  0  0
    7.7519  -12.1227   27.2125 C   0  0  0  0  0  0
    7.0596  -11.4191   28.1974 C   0  0  0  0  0  0
    5.8281  -10.8427   27.8971 C   0  0  0  0  0  0
    2.4979  -10.2488   28.3414 C   0  0  0  0  0  0
    1.4836  -10.9796   28.9184 C   0  0  0  0  0  0
    1.1662  -12.0316   28.0050 C   0  0  0  0  0  0
    0.2048  -13.0469   27.9937 C   0  0  0  0  0  0
   -1.6707  -15.2498   27.8972 N   0  0  0  0  0  0
   -2.9214  -16.0131   27.9674 C   0  0  0  0  0  0
   -2.8257  -17.5421   27.8247 C   0  0  0  0  0  0
   -3.8487  -18.3012   27.2107 C   0  0  0  0  0  0
   -5.0853  -17.6492   26.5803 C   0  0  0  0  0  0
   -5.9480  -18.5385   26.0885 F   0  0  0  0  0  0
   -5.7281  -16.9348   27.4993 F   0  0  0  0  0  0
   -4.7218  -16.8551   25.5724 F   0  0  0  0  0  0
   -3.7295  -19.6975   27.1685 C   0  0  0  0  0  0
   -2.6124  -20.3509   27.6885 C   0  0  0  0  0  0
   -2.4661  -21.8560   27.4971 C   0  0  0  0  0  0
   -3.6767  -22.8917   28.5123 S   0  0  0  0  0  0
   -3.4828  -24.6173   27.8032 C   0  0  0  0  0  0
   -5.0395  -22.4432   28.2136 O   0  0  0  0  0  0
   -3.2032  -22.9328   29.8972 O   0  0  0  0  0  0
   -1.6074  -19.5988   28.2972 C   0  0  0  0  0  0
   -1.7068  -18.2082   28.3442 C   0  0  0  0  0  0
    1.0409  -14.5144   25.0423 H   0  0  0  0  0  0
    2.7559  -12.7697   25.0265 H   0  0  0  0  0  0
    3.6633  -10.4996   25.2477 H   0  0  0  0  0  0
    4.0124   -9.2426   26.3951 H   0  0  0  0  0  0
    5.5802  -11.7719   24.6337 H   0  0  0  0  0  0
    8.7032  -12.5723   27.4428 H   0  0  0  0  0  0
    7.4710  -11.3184   29.1916 H   0  0  0  0  0  0
    5.3042  -10.2971   28.6681 H   0  0  0  0  0  0
    3.0199   -9.3716   28.6972 H   0  0  0  0  0  0
    1.0262  -10.7758   29.8740 H   0  0  0  0  0  0
   -0.5166  -13.0912   28.7963 H   0  0  0  0  0  0
   -1.3240  -14.9330   28.8064 H   0  0  0  0  0  0
   -3.6086  -15.5823   27.2434 H   0  0  0  0  0  0
   -3.3610  -15.8107   28.9455 H   0  0  0  0  0  0
   -4.4957  -20.2925   26.6916 H   0  0  0  0  0  0
   -1.4635  -22.2011   27.7504 H   0  0  0  0  0  0
   -2.6377  -22.1130   26.4521 H   0  0  0  0  0  0
   -4.1436  -25.2844   28.3540 H   0  0  0  0  0  0
   -2.4471  -24.9334   27.9213 H   0  0  0  0  0  0
   -3.7592  -24.5976   26.7503 H   0  0  0  0  0  0
   -0.7283  -20.0809   28.7018 H   0  0  0  0  0  0
   -0.9130  -17.6474   28.8161 H   0  0  0  0  0  0
  1  2  2  0  0  0
  2  3  1  0  0  0
  2 20  1  0  0  0
  3 19  1  0  0  0
  3  4  2  0  0  0
  4  5  1  0  0  0
  4 37  1  0  0  0
  5  6  2  0  0  0
  5 38  1  0  0  0
  6  7  1  0  0  0
  6 18  1  0  0  0
  7  8  1  0  0  0
  7 16  1  0  0  0
  8  9  1  0  0  0
  8 39  1  0  0  0
  8 40  1  0  0  0
  9 15  1  0  0  0
  9 10  2  0  0  0
 10 11  1  0  0  0
 10 41  1  0  0  0
 11 12  1  0  0  0
 11 13  2  0  0  0
 13 14  1  0  0  0
 13 42  1  0  0  0
 14 15  2  0  0  0
 14 43  1  0  0  0
 15 44  1  0  0  0
 16 17  2  0  0  0
 16 45  1  0  0  0
 17 18  1  0  0  0
 17 46  1  0  0  0
 18 19  2  0  0  0
 19 47  1  0  0  0
 20 21  1  0  0  0
 20 48  1  0  0  0
 21 22  1  0  0  0
 21 49  1  0  0  0
 21 50  1  0  0  0
 22 36  1  0  0  0
 22 23  2  0  0  0
 23 24  1  0  0  0
 23 28  1  0  0  0
 24 25  1  0  0  0
 24 26  1  0  0  0
 24 27  1  0  0  0
 28 29  2  0  0  0
 28 51  1  0  0  0
 29 30  1  0  0  0
 29 35  1  0  0  0
 30 31  1  0  0  0
 30 52  1  0  0  0
 30 53  1  0  0  0
 31 32  1  0  0  0
 31 33  2  0  0  0
 31 34  2  0  0  0
 32 54  1  0  0  0
 32 55  1  0  0  0
 32 56  1  0  0  0
 35 36  2  0  0  0
 35 57  1  0  0  0
 36 58  1  0  0  0
M  END
> <s_m_source_file>
/home/yujie/leadopt/data/result/selection/sEH/lig_8g.sdf

> <i_m_source_file_index>
1

> <i_lp_mmshare_version>
51139

> <i_f3d_flags>
0

> <s_epik_input>
W0NIM11TKD1PKSg9TylbQ0gyXWMoW2NIXVtjSF0xKVtjSF1jKEMoRikoRilGKWMxW0NIMl1bTkhdQyg9TyljKFtjSF1bY0hdMilbY0hdYyhjMjMpW2NIXVtjSF1uM1tDSDJdYzRbY0hdYyhGKVtjSF1bY0hdW2NIXTQ=

> <s_epik_cmdline>
J2VwaWtfcHl0aG9uJywgJy1waHQnLCAnMi4wJywgJy1waCcsICc3LjAnLCAnLXRuJywgJzgnLCAnLW1hJywgJzIwMCcsICctaW1hZScsICc8aW5maWxlLm1hZT4nLCAnLW9tYWUnLCAnPG91dGZpbGUubWFlPic=

> <r_lp_tautomer_probability>
1

> <r_epik_Ionization_Penalty>
  0.0000

> <r_epik_Ionization_Penalty_Charging>
  0.0000

> <r_epik_Ionization_Penalty_Neutral>
  0.0000

> <r_epik_State_Penalty>
 -0.0000

> <r_epik_Charging_Adjusted_Penalty>
0

> <i_epik_Tot_Q>
0

> <i_epik_Tot_abs_Q>
0

> <s_lp_Force_Field>
OPLS3e

> <r_lp_Energy>
30.3995

> <b_lp_Chiralities_Consistent>
1

> <s_lp_Variant>
/home/yujie/leadopt/data/result/selection/sEH/lig_8g.sdf:1-1

> <s_i_glide_gridfile>
glide-grid_sEH

> <i_i_glide_lignum>
1

> <i_i_glide_rotatable_bonds>
9

> <r_i_docking_score>
-13.3442067532834

> <r_i_glide_ligand_efficiency>
-0.370672409813428

> <r_i_glide_ligand_efficiency_sa>
-1.2239333289144

> <r_i_glide_ligand_efficiency_ln>
-2.91134539476305

> <r_i_glide_gscore>
-13.3442067532834

> <r_i_glide_lipo>
-5.17663331023494

> <r_i_glide_hbond>
-0.72

> <r_i_glide_metal>
-0

> <r_i_glide_rewards>
-2.62261686117743

> <r_i_glide_evdw>
-57.3507843017578

> <r_i_glide_ecoul>
-15.2810153961182

> <r_i_glide_erotb>
0.534734942634561

> <r_i_glide_esite>
-0.2

> <r_i_glide_emodel>
-128.551130589052

> <r_i_glide_energy>
-72.631799697876

> <r_i_glide_einternal>
6.58419370651245

> <i_i_glide_confnum>
211

> <i_i_glide_posenum>
70

> <r_i_glide_eff_state_penalty>
-0

$$$$
