/home/yujie/leadopt/data/result/selection/sEH/lig_9a.sdf:1
                    3D
 Schrodinger Suite 2020-3.
 54 57  0  0  1  0            999 V2000
   -1.3288  -15.3330   25.7007 O   0  0  0  0  0  0
   -1.0424  -14.8269   26.7856 C   0  0  0  0  0  0
    0.0531  -13.7849   26.8657 C   0  0  0  0  0  0
    0.7584  -13.4500   25.7002 C   0  0  0  0  0  0
    1.7269  -12.4514   25.6639 C   0  0  0  0  0  0
    1.9929  -11.7824   26.8618 C   0  0  0  0  0  0
    2.8560  -10.7372   27.1449 N   0  0  0  0  0  0
    3.7475  -10.0891   26.1919 C   0  0  0  0  0  0
    5.0503  -10.8413   25.9649 C   0  0  0  0  0  0
    5.8886  -11.1419   27.0440 C   0  0  0  0  0  0
    7.0794  -11.8343   26.8385 C   0  0  0  0  0  0
    7.8714  -12.1332   27.8900 F   0  0  0  0  0  0
    7.4496  -12.2196   25.5497 C   0  0  0  0  0  0
    6.6223  -11.9173   24.4670 C   0  0  0  0  0  0
    5.4247  -11.2310   24.6740 C   0  0  0  0  0  0
    2.8151  -10.4815   28.4961 C   0  0  0  0  0  0
    1.8703  -11.2777   29.0986 C   0  0  0  0  0  0
    1.3272  -12.1165   28.0777 C   0  0  0  0  0  0
    0.3490  -13.1153   28.0635 C   0  0  0  0  0  0
   -1.7492  -15.0999   27.8971 N   0  0  0  0  0  0
   -2.9505  -15.9455   27.9555 C   0  0  0  0  0  0
   -2.7321  -17.4590   28.0240 C   0  0  0  0  0  0
   -1.4778  -18.0059   28.3067 C   0  0  0  0  0  0
   -1.3288  -19.3840   28.4125 C   0  0  0  0  0  0
   -2.4078  -20.2377   28.2049 C   0  0  0  0  0  0
   -2.1484  -21.6112   28.3166 N   0  0  0  0  0  0
   -3.3528  -22.9055   28.2712 S   0  0  0  0  0  0
   -3.7628  -23.0052   26.4392 C   0  0  0  0  0  0
   -4.5291  -22.4579   29.0207 O   0  0  0  0  0  0
   -2.6415  -24.1286   28.6510 O   0  0  0  0  0  0
   -3.6601  -19.6968   27.8961 C   0  0  0  0  0  0
   -3.8192  -18.3136   27.8111 C   0  0  0  0  0  0
    0.5462  -13.9625   24.7711 H   0  0  0  0  0  0
    2.2364  -12.2052   24.7435 H   0  0  0  0  0  0
    3.2026   -9.9673   25.2541 H   0  0  0  0  0  0
    3.9576   -9.0826   26.5425 H   0  0  0  0  0  0
    5.6174  -10.8474   28.0468 H   0  0  0  0  0  0
    8.3772  -12.7513   25.3949 H   0  0  0  0  0  0
    6.9084  -12.2135   23.4686 H   0  0  0  0  0  0
    4.7891  -11.0056   23.8282 H   0  0  0  0  0  0
    3.4667   -9.7327   28.9231 H   0  0  0  0  0  0
    1.6127  -11.2673   30.1474 H   0  0  0  0  0  0
   -0.1696  -13.3330   28.9830 H   0  0  0  0  0  0
   -1.3958  -14.7925   28.8062 H   0  0  0  0  0  0
   -3.5943  -15.7340   27.0996 H   0  0  0  0  0  0
   -3.5182  -15.6505   28.8411 H   0  0  0  0  0  0
   -0.6215  -17.3715   28.4898 H   0  0  0  0  0  0
   -0.3639  -19.7860   28.6892 H   0  0  0  0  0  0
   -1.1939  -21.8991   28.4636 H   0  0  0  0  0  0
   -4.5262  -23.7675   26.2981 H   0  0  0  0  0  0
   -2.8596  -23.2753   25.8946 H   0  0  0  0  0  0
   -4.1292  -22.0392   26.1000 H   0  0  0  0  0  0
   -4.5185  -20.3282   27.7277 H   0  0  0  0  0  0
   -4.7956  -17.9076   27.5872 H   0  0  0  0  0  0
  1  2  2  0  0  0
  2  3  1  0  0  0
  2 20  1  0  0  0
  3 19  1  0  0  0
  3  4  2  0  0  0
  4  5  1  0  0  0
  4 33  1  0  0  0
  5  6  2  0  0  0
  5 34  1  0  0  0
  6  7  1  0  0  0
  6 18  1  0  0  0
  7  8  1  0  0  0
  7 16  1  0  0  0
  8  9  1  0  0  0
  8 35  1  0  0  0
  8 36  1  0  0  0
  9 15  1  0  0  0
  9 10  2  0  0  0
 10 11  1  0  0  0
 10 37  1  0  0  0
 11 12  1  0  0  0
 11 13  2  0  0  0
 13 14  1  0  0  0
 13 38  1  0  0  0
 14 15  2  0  0  0
 14 39  1  0  0  0
 15 40  1  0  0  0
 16 17  2  0  0  0
 16 41  1  0  0  0
 17 18  1  0  0  0
 17 42  1  0  0  0
 18 19  2  0  0  0
 19 43  1  0  0  0
 20 21  1  0  0  0
 20 44  1  0  0  0
 21 22  1  0  0  0
 21 45  1  0  0  0
 21 46  1  0  0  0
 22 32  1  0  0  0
 22 23  2  0  0  0
 23 24  1  0  0  0
 23 47  1  0  0  0
 24 25  2  0  0  0
 24 48  1  0  0  0
 25 26  1  0  0  0
 25 31  1  0  0  0
 26 27  1  0  0  0
 26 49  1  0  0  0
 27 28  1  0  0  0
 27 29  2  0  0  0
 27 30  2  0  0  0
 28 50  1  0  0  0
 28 51  1  0  0  0
 28 52  1  0  0  0
 31 32  2  0  0  0
 31 53  1  0  0  0
 32 54  1  0  0  0
M  END
> <s_m_source_file>
/home/yujie/leadopt/data/result/selection/sEH/lig_9a.sdf

> <i_m_source_file_index>
1

> <i_lp_mmshare_version>
51139

> <i_f3d_flags>
0

> <s_epik_input>
W0NIM11TKD1PKSg9TylbTkhdYyhbY0hdW2NIXTEpW2NIXVtjSF1jMVtDSDJdW05IXUMoPU8pYyhbY0hdW2NIXTIpW2NIXWMoYzIzKVtjSF1bY0hdbjNbQ0gyXWM0W2NIXWMoRilbY0hdW2NIXVtjSF00

> <s_epik_cmdline>
J2VwaWtfcHl0aG9uJywgJy1waHQnLCAnMi4wJywgJy1waCcsICc3LjAnLCAnLXRuJywgJzgnLCAnLW1hJywgJzIwMCcsICctaW1hZScsICc8aW5maWxlLm1hZT4nLCAnLW9tYWUnLCAnPG91dGZpbGUubWFlPic=

> <r_epik_Ionization_Penalty>
  0.0129

> <r_epik_Ionization_Penalty_Charging>
  0.0000

> <r_epik_Ionization_Penalty_Neutral>
  0.0129

> <r_epik_State_Penalty>
  0.0100

> <r_epik_Charging_Adjusted_Penalty>
0.0100458

> <i_epik_Tot_Q>
0

> <i_epik_Tot_abs_Q>
0

> <s_lp_Force_Field>
OPLS3e

> <r_lp_Energy>
31.0817

> <b_lp_Chiralities_Consistent>
1

> <s_lp_Variant>
/home/yujie/leadopt/data/result/selection/sEH/lig_9a.sdf:1-1

> <s_i_glide_gridfile>
glide-grid_sEH

> <i_i_glide_lignum>
1

> <i_i_glide_rotatable_bonds>
8

> <r_i_docking_score>
-11.7739948225665

> <r_i_glide_ligand_efficiency>
-0.367937338205202

> <r_i_glide_ligand_efficiency_sa>
-1.16812823410116

> <r_i_glide_ligand_efficiency_ln>
-2.63651838774992

> <r_i_glide_gscore>
-11.7840406225665

> <r_i_glide_lipo>
-4.56496641214241

> <r_i_glide_hbond>
-0.72

> <r_i_glide_metal>
-0

> <r_i_glide_rewards>
-2.11341852119631

> <r_i_glide_evdw>
-54.796817779541

> <r_i_glide_ecoul>
-14.2301616668701

> <r_i_glide_erotb>
0.688709449779816

> <r_i_glide_esite>
-0.2

> <r_i_glide_emodel>
-119.47158770917

> <r_i_glide_energy>
-69.0269794464111

> <r_i_glide_einternal>
3.13391828536987

> <i_i_glide_confnum>
100

> <i_i_glide_posenum>
217

> <r_i_glide_eff_state_penalty>
0.0100458

$$$$
