/home/yujie/leadopt/data/result/selection/sEH/lig_11a.sdf:1
                    3D
 Schrodinger Suite 2020-3.
 47 50  0  0  1  0            999 V2000
   -1.3287  -15.3329   25.6481 O   0  0  0  0  0  0
   -0.9294  -14.9590   26.7536 C   0  0  0  0  0  0
    0.2011  -13.9617   26.8659 C   0  0  0  0  0  0
    1.1463  -13.8721   25.8359 C   0  0  0  0  0  0
    2.1948  -12.9518   25.8512 C   0  0  0  0  0  0
    2.2733  -12.1005   26.9556 C   0  0  0  0  0  0
    3.1743  -11.1039   27.2693 N   0  0  0  0  0  0
    2.8483  -10.5334   28.4738 C   0  0  0  0  0  0
    1.7179  -11.1486   28.9705 C   0  0  0  0  0  0
    1.3312  -12.1529   28.0245 C   0  0  0  0  0  0
    0.2908  -13.0907   27.9623 C   0  0  0  0  0  0
   -1.4940  -15.3827   27.8972 N   0  0  0  0  0  0
   -2.7309  -16.1619   27.9677 C   0  0  0  0  0  0
   -2.6328  -17.6984   27.9942 C   0  0  0  0  0  0
   -3.7841  -18.4834   27.7781 C   0  0  0  0  0  0
   -5.1302  -17.8574   27.3942 C   0  0  0  0  0  0
   -5.4519  -16.9326   28.2902 F   0  0  0  0  0  0
   -5.0544  -17.2954   26.1873 F   0  0  0  0  0  0
   -6.1276  -18.7387   27.3666 F   0  0  0  0  0  0
   -3.7132  -19.8675   27.9738 C   0  0  0  0  0  0
   -2.5402  -20.5163   28.3578 C   0  0  0  0  0  0
   -2.6721  -21.8407   28.6892 N   0  5  0  0  0  0
   -1.5548  -22.9377   28.7163 S   0  0  0  0  0  0
   -2.1761  -24.0982   27.3492 C   0  0  0  0  0  0
   -1.7788  -23.7658   25.9295 C   0  0  0  0  0  0
   -1.1654  -24.9589   26.6339 C   0  0  0  0  0  0
   -0.2203  -22.4982   28.2968 O   0  0  0  0  0  0
   -1.6156  -23.7320   29.9476 O   0  0  0  0  0  0
   -1.3836  -19.7332   28.4716 C   0  0  0  0  0  0
   -1.4269  -18.3462   28.2965 C   0  0  0  0  0  0
    1.0729  -14.5342   24.9840 H   0  0  0  0  0  0
    2.9076  -12.9034   25.0416 H   0  0  0  0  0  0
    3.9712  -10.8082   26.7248 H   0  0  0  0  0  0
    3.4569   -9.7338   28.8739 H   0  0  0  0  0  0
    1.2279  -10.9086   29.9014 H   0  0  0  0  0  0
   -0.4425  -13.1188   28.7547 H   0  0  0  0  0  0
   -1.1159  -15.0813   28.7979 H   0  0  0  0  0  0
   -3.2308  -15.8533   28.8873 H   0  0  0  0  0  0
   -3.3793  -15.8502   27.1487 H   0  0  0  0  0  0
   -4.6084  -20.4637   27.8666 H   0  0  0  0  0  0
   -3.1704  -24.4799   27.5722 H   0  0  0  0  0  0
   -2.5079  -23.9315   25.1357 H   0  0  0  0  0  0
   -1.1688  -22.8778   25.7601 H   0  0  0  0  0  0
   -0.1288  -24.9104   26.9602 H   0  0  0  0  0  0
   -1.4625  -25.9662   26.3386 H   0  0  0  0  0  0
   -0.4490  -20.1729   28.7858 H   0  0  0  0  0  0
   -0.5247  -17.7757   28.4627 H   0  0  0  0  0  0
  1  2  2  0  0  0
  2  3  1  0  0  0
  2 12  1  0  0  0
  3 11  1  0  0  0
  3  4  2  0  0  0
  4  5  1  0  0  0
  4 31  1  0  0  0
  5  6  2  0  0  0
  5 32  1  0  0  0
  6  7  1  0  0  0
  6 10  1  0  0  0
  7  8  1  0  0  0
  7 33  1  0  0  0
  8  9  2  0  0  0
  8 34  1  0  0  0
  9 10  1  0  0  0
  9 35  1  0  0  0
 10 11  2  0  0  0
 11 36  1  0  0  0
 12 13  1  0  0  0
 12 37  1  0  0  0
 13 14  1  0  0  0
 13 38  1  0  0  0
 13 39  1  0  0  0
 14 30  1  0  0  0
 14 15  2  0  0  0
 15 16  1  0  0  0
 15 20  1  0  0  0
 16 17  1  0  0  0
 16 18  1  0  0  0
 16 19  1  0  0  0
 20 21  2  0  0  0
 20 40  1  0  0  0
 21 22  1  0  0  0
 21 29  1  0  0  0
 22 23  1  0  0  0
 23 24  1  0  0  0
 23 27  2  0  0  0
 23 28  2  0  0  0
 24 26  1  0  0  0
 24 25  1  0  0  0
 24 41  1  0  0  0
 25 26  1  0  0  0
 25 42  1  0  0  0
 25 43  1  0  0  0
 26 44  1  0  0  0
 26 45  1  0  0  0
 29 30  2  0  0  0
 29 46  1  0  0  0
 30 47  1  0  0  0
M  CHG  1  22  -1
M  END
> <s_m_source_file>
/home/yujie/leadopt/data/result/selection/sEH/lig_11a.sdf

> <i_m_source_file_index>
1

> <i_lp_mmshare_version>
51139

> <i_f3d_flags>
0

> <s_epik_input>
W25IXTFbY0hdW2NIXWMoYzEyKVtjSF1jKFtjSF1bY0hdMilDKD1PKVtOSF1bQ0gyXWMzYyhDKEYpKEYpRilbY0hdYyhbY0hdW2NIXTMpW05IXVMoPU8pKD1PKVtDSF00W0NIMl1bQ0gyXTQ=

> <s_epik_cmdline>
J2VwaWtfcHl0aG9uJywgJy1waHQnLCAnMi4wJywgJy1waCcsICc3LjAnLCAnLXRuJywgJzgnLCAnLW1hJywgJzIwMCcsICctaW1hZScsICc8aW5maWxlLm1hZT4nLCAnLW9tYWUnLCAnPG91dGZpbGUubWFlPic=

> <r_epik_Ionization_Penalty>
  1.2618

> <r_epik_Ionization_Penalty_Charging>
  1.2618

> <r_epik_Ionization_Penalty_Neutral>
  0.0000

> <r_epik_State_Penalty>
  1.3325

> <r_epik_Charging_Adjusted_Penalty>
2.59425

> <i_epik_Tot_Q>
-1

> <i_epik_Tot_abs_Q>
1

> <s_lp_Force_Field>
OPLS3e

> <r_lp_Energy>
45.6124

> <b_lp_Chiralities_Consistent>
1

> <s_lp_Variant>
/home/yujie/leadopt/data/result/selection/sEH/lig_11a.sdf:1-2

> <s_i_glide_gridfile>
glide-grid_sEH

> <i_i_glide_lignum>
2

> <i_i_glide_rotatable_bonds>
8

> <r_i_docking_score>
-10.6365331139745

> <r_i_glide_ligand_efficiency>
-0.354551103799151

> <r_i_glide_ligand_efficiency_sa>
-1.10167271349754

> <r_i_glide_ligand_efficiency_ln>
-2.4167362178057

> <r_i_glide_gscore>
-11.9690031139745

> <r_i_glide_lipo>
-4.15879170275192

> <r_i_glide_hbond>
-0.72

> <r_i_glide_metal>
-0

> <r_i_glide_rewards>
-2.41646160097109

> <r_i_glide_evdw>
-53.0106163024902

> <r_i_glide_ecoul>
-16.1989727020264

> <r_i_glide_erotb>
0.627902782521255

> <r_i_glide_esite>
-0.221275872344324

> <r_i_glide_emodel>
-116.935035695012

> <r_i_glide_energy>
-69.2095890045166

> <r_i_glide_einternal>
6.9882640838623

> <i_i_glide_confnum>
126

> <i_i_glide_posenum>
223

> <r_i_glide_eff_state_penalty>
1.33247

$$$$
