/home/yujie/leadopt/data/result/selection/sEH/lig_8d.sdf:1
                    3D
 Schrodinger Suite 2020-3.
 60 64  0  0  1  0            999 V2000
   -1.3290  -15.3337   25.6602 O   0  0  0  0  0  0
   -0.9770  -14.9254   26.7679 C   0  0  0  0  0  0
    0.1234  -13.8918   26.8573 C   0  0  0  0  0  0
    0.9564  -13.6859   25.7482 C   0  0  0  0  0  0
    1.9043  -12.6687   25.6917 C   0  0  0  0  0  0
    1.9987  -11.8273   26.8036 C   0  0  0  0  0  0
    2.7764  -10.7025   27.0265 N   0  0  0  0  0  0
    3.7763  -10.1601   26.1169 C   0  0  0  0  0  0
    5.1329  -10.8254   26.2837 C   0  0  0  0  0  0
    5.9031  -10.5466   27.4156 C   0  0  0  0  0  0
    7.1397  -11.1573   27.5944 C   0  0  0  0  0  0
    7.8692  -10.8700   28.6925 F   0  0  0  0  0  0
    7.6185  -12.0569   26.6428 C   0  0  0  0  0  0
    6.8534  -12.3465   25.5112 C   0  0  0  0  0  0
    5.6130  -11.7303   25.3309 C   0  0  0  0  0  0
    2.5327  -10.2378   28.2980 C   0  0  0  0  0  0
    1.5751  -11.0172   28.9073 C   0  0  0  0  0  0
    1.2018  -12.0280   27.9696 C   0  0  0  0  0  0
    0.2710  -13.0744   27.9870 C   0  0  0  0  0  0
   -1.6127  -15.2945   27.8972 N   0  0  0  0  0  0
   -2.8415  -16.0997   27.9278 C   0  0  0  0  0  0
   -2.7101  -17.6344   27.9340 C   0  0  0  0  0  0
   -3.8142  -18.4587   27.6200 C   0  0  0  0  0  0
   -5.1469  -17.8883   27.1068 C   0  0  0  0  0  0
   -5.5841  -16.9343   27.9145 F   0  0  0  0  0  0
   -4.9739  -17.3735   25.8884 F   0  0  0  0  0  0
   -6.1210  -18.7964   27.0306 F   0  0  0  0  0  0
   -3.6964  -19.8447   27.7954 C   0  0  0  0  0  0
   -2.5126  -20.4595   28.2084 C   0  0  0  0  0  0
   -2.5679  -21.8142   28.4197 N   0  5  0  0  0  0
   -1.3947  -22.8404   28.2375 S   0  0  0  0  0  0
   -1.5461  -23.2752   26.4002 C   0  0  0  0  0  0
   -1.0126  -24.6183   25.9571 C   0  0  0  0  0  0
   -2.5091  -24.3744   26.0153 C   0  0  0  0  0  0
   -1.6461  -24.0805   28.9792 O   0  0  0  0  0  0
   -0.0435  -22.2904   28.3586 O   0  0  0  0  0  0
   -1.4063  -19.6286   28.4253 C   0  0  0  0  0  0
   -1.5018  -18.2420   28.2977 C   0  0  0  0  0  0
    0.8530  -14.3091   24.8718 H   0  0  0  0  0  0
    2.5074  -12.5225   24.8083 H   0  0  0  0  0  0
    3.4113  -10.2682   25.0940 H   0  0  0  0  0  0
    3.8579   -9.0862   26.2853 H   0  0  0  0  0  0
    5.5460   -9.8569   28.1655 H   0  0  0  0  0  0
    8.5805  -12.5261   26.7849 H   0  0  0  0  0  0
    7.2210  -13.0457   24.7742 H   0  0  0  0  0  0
    5.0262  -11.9617   24.4538 H   0  0  0  0  0  0
    3.0709   -9.3761   28.6664 H   0  0  0  0  0  0
    1.1807  -10.8736   29.9002 H   0  0  0  0  0  0
   -0.3615  -13.1976   28.8523 H   0  0  0  0  0  0
   -1.2832  -14.9661   28.8083 H   0  0  0  0  0  0
   -3.4721  -15.7958   27.0923 H   0  0  0  0  0  0
   -3.3786  -15.8159   28.8343 H   0  0  0  0  0  0
   -4.5523  -20.4763   27.6025 H   0  0  0  0  0  0
   -1.4250  -22.3923   25.7774 H   0  0  0  0  0  0
   -0.5510  -25.2678   26.7027 H   0  0  0  0  0  0
   -0.5185  -24.6820   24.9869 H   0  0  0  0  0  0
   -3.0721  -24.2642   25.0886 H   0  0  0  0  0  0
   -3.0967  -24.8507   26.8016 H   0  0  0  0  0  0
   -0.4702  -20.0326   28.7747 H   0  0  0  0  0  0
   -0.6358  -17.6417   28.5365 H   0  0  0  0  0  0
  1  2  2  0  0  0
  2  3  1  0  0  0
  2 20  1  0  0  0
  3 19  1  0  0  0
  3  4  2  0  0  0
  4  5  1  0  0  0
  4 39  1  0  0  0
  5  6  2  0  0  0
  5 40  1  0  0  0
  6  7  1  0  0  0
  6 18  1  0  0  0
  7  8  1  0  0  0
  7 16  1  0  0  0
  8  9  1  0  0  0
  8 41  1  0  0  0
  8 42  1  0  0  0
  9 15  1  0  0  0
  9 10  2  0  0  0
 10 11  1  0  0  0
 10 43  1  0  0  0
 11 12  1  0  0  0
 11 13  2  0  0  0
 13 14  1  0  0  0
 13 44  1  0  0  0
 14 15  2  0  0  0
 14 45  1  0  0  0
 15 46  1  0  0  0
 16 17  2  0  0  0
 16 47  1  0  0  0
 17 18  1  0  0  0
 17 48  1  0  0  0
 18 19  2  0  0  0
 19 49  1  0  0  0
 20 21  1  0  0  0
 20 50  1  0  0  0
 21 22  1  0  0  0
 21 51  1  0  0  0
 21 52  1  0  0  0
 22 38  1  0  0  0
 22 23  2  0  0  0
 23 24  1  0  0  0
 23 28  1  0  0  0
 24 25  1  0  0  0
 24 26  1  0  0  0
 24 27  1  0  0  0
 28 29  2  0  0  0
 28 53  1  0  0  0
 29 30  1  0  0  0
 29 37  1  0  0  0
 30 31  1  0  0  0
 31 32  1  0  0  0
 31 35  2  0  0  0
 31 36  2  0  0  0
 32 34  1  0  0  0
 32 33  1  0  0  0
 32 54  1  0  0  0
 33 34  1  0  0  0
 33 55  1  0  0  0
 33 56  1  0  0  0
 34 57  1  0  0  0
 34 58  1  0  0  0
 37 38  2  0  0  0
 37 59  1  0  0  0
 38 60  1  0  0  0
M  CHG  1  30  -1
M  END
> <s_m_source_file>
/home/yujie/leadopt/data/result/selection/sEH/lig_8d.sdf

> <i_m_source_file_index>
1

> <i_lp_mmshare_version>
51139

> <i_f3d_flags>
0

> <s_epik_input>
W0NIMl0xW0NIMl1bQ0hdMVMoPU8pKD1PKVtOSF1jKFtjSF1bY0hdMilbY0hdYyhDKEYpKEYpRiljMltDSDJdW05IXUMoPU8pYyhbY0hdW2NIXTMpW2NIXWMoYzM0KVtjSF1bY0hdbjRbQ0gyXWM1W2NIXWMoRilbY0hdW2NIXVtjSF01

> <s_epik_cmdline>
J2VwaWtfcHl0aG9uJywgJy1waHQnLCAnMi4wJywgJy1waCcsICc3LjAnLCAnLXRuJywgJzgnLCAnLW1hJywgJzIwMCcsICctaW1hZScsICc8aW5maWxlLm1hZT4nLCAnLW9tYWUnLCAnPG91dGZpbGUubWFlPic=

> <r_epik_Ionization_Penalty>
  1.2618

> <r_epik_Ionization_Penalty_Charging>
  1.2618

> <r_epik_Ionization_Penalty_Neutral>
  0.0000

> <r_epik_State_Penalty>
  1.3325

> <r_epik_Charging_Adjusted_Penalty>
2.59425

> <i_epik_Tot_Q>
-1

> <i_epik_Tot_abs_Q>
1

> <s_lp_Force_Field>
OPLS3e

> <r_lp_Energy>
55.7191

> <b_lp_Chiralities_Consistent>
1

> <s_lp_Variant>
/home/yujie/leadopt/data/result/selection/sEH/lig_8d.sdf:1-2

> <s_i_glide_gridfile>
glide-grid_sEH

> <i_i_glide_lignum>
2

> <i_i_glide_rotatable_bonds>
10

> <r_i_docking_score>
-12.1537581446845

> <r_i_glide_ligand_efficiency>
-0.319835740649592

> <r_i_glide_ligand_efficiency_sa>
-1.07527989297545

> <r_i_glide_ligand_efficiency_ln>
-2.62070778333562

> <r_i_glide_gscore>
-13.4862281446845

> <r_i_glide_lipo>
-5.46978379807711

> <r_i_glide_hbond>
-0.72

> <r_i_glide_metal>
-0

> <r_i_glide_rewards>
-2.58453708780004

> <r_i_glide_evdw>
-58.8864250183105

> <r_i_glide_ecoul>
-14.6388511657715

> <r_i_glide_erotb>
0.628241666973903

> <r_i_glide_esite>
-0.2

> <r_i_glide_emodel>
-133.298266524491

> <r_i_glide_energy>
-73.525276184082

> <r_i_glide_einternal>
6.50742292404175

> <i_i_glide_confnum>
191

> <i_i_glide_posenum>
389

> <r_i_glide_eff_state_penalty>
1.33247

$$$$
