/home/yujie/leadopt/data/result/selection/sEH/lig_6d.sdf:1
                    3D
 Schrodinger Suite 2020-3.
 49 52  0  0  1  0            999 V2000
   -1.5965  -15.7322   25.7344 O   0  0  0  0  0  0
   -1.2719  -15.1333   26.7513 C   0  0  0  0  0  0
   -0.1618  -14.1110   26.7224 C   0  0  0  0  0  0
    0.6272  -13.9366   25.5636 C   0  0  0  0  0  0
    1.6206  -12.9561   25.4995 C   0  0  0  0  0  0
    1.8227  -12.1553   26.6188 C   0  0  0  0  0  0
    2.6665  -11.0968   26.8695 N   0  0  0  0  0  0
    3.6830  -10.5240   25.9795 C   0  0  0  0  0  0
    5.0740  -11.1219   26.1486 C   0  0  0  0  0  0
    5.8907  -10.6921   27.2019 C   0  0  0  0  0  0
    7.1793  -11.2042   27.3535 C   0  0  0  0  0  0
    7.6681  -12.1326   26.4363 C   0  0  0  0  0  0
    6.8648  -12.5552   25.3756 C   0  0  0  0  0  0
    5.5687  -12.0593   25.2333 C   0  0  0  0  0  0
    4.8028  -12.4868   24.2023 F   0  0  0  0  0  0
    2.4786  -10.6379   28.1325 C   0  0  0  0  0  0
    1.4915  -11.3876   28.6476 N   0  0  0  0  0  0
    3.0694   -9.7334   28.6970 O   0  0  0  0  0  0
    1.0712  -12.3212   27.7477 C   0  0  0  0  0  0
    0.0757  -13.2800   27.8299 C   0  0  0  0  0  0
   -1.9436  -15.2996   27.8975 N   0  0  0  0  0  0
   -3.1055  -16.1688   28.0768 C   0  0  0  0  0  0
   -2.8196  -17.6771   28.0004 C   0  0  0  0  0  0
   -3.7385  -18.5876   27.4325 C   0  0  0  0  0  0
   -5.0141  -18.1195   26.7176 C   0  0  0  0  0  0
   -4.6940  -17.3335   25.6870 F   0  0  0  0  0  0
   -5.7288  -19.1355   26.2324 F   0  0  0  0  0  0
   -5.7954  -17.4321   27.5472 F   0  0  0  0  0  0
   -3.4546  -19.9624   27.4973 C   0  0  0  0  0  0
   -2.2606  -20.4268   28.0419 C   0  0  0  0  0  0
   -1.3288  -19.5244   28.5383 C   0  0  0  0  0  0
   -1.6081  -18.1609   28.5225 C   0  0  0  0  0  0
    0.4623  -14.5329   24.6785 H   0  0  0  0  0  0
    2.1978  -12.8234   24.5951 H   0  0  0  0  0  0
    3.3556  -10.6615   24.9481 H   0  0  0  0  0  0
    3.7406   -9.4421   26.1183 H   0  0  0  0  0  0
    5.5253   -9.9622   27.9107 H   0  0  0  0  0  0
    7.7979  -10.8783   28.1767 H   0  0  0  0  0  0
    8.6690  -12.5238   26.5450 H   0  0  0  0  0  0
    7.2429  -13.2731   24.6602 H   0  0  0  0  0  0
    1.1243  -11.2711   29.5787 H   0  0  0  0  0  0
   -0.5288  -13.3355   28.7204 H   0  0  0  0  0  0
   -1.5543  -14.9241   28.7646 H   0  0  0  0  0  0
   -3.8639  -15.8445   27.3658 H   0  0  0  0  0  0
   -3.5207  -15.9630   29.0641 H   0  0  0  0  0  0
   -4.1451  -20.6876   27.0884 H   0  0  0  0  0  0
   -2.0490  -21.4868   28.0642 H   0  0  0  0  0  0
   -0.4014  -19.8799   28.9652 H   0  0  0  0  0  0
   -0.8854  -17.4787   28.9462 H   0  0  0  0  0  0
  1  2  2  0  0  0
  2  3  1  0  0  0
  2 21  1  0  0  0
  3 20  1  0  0  0
  3  4  2  0  0  0
  4  5  1  0  0  0
  4 33  1  0  0  0
  5  6  2  0  0  0
  5 34  1  0  0  0
  6  7  1  0  0  0
  6 19  1  0  0  0
  7  8  1  0  0  0
  7 16  1  0  0  0
  8  9  1  0  0  0
  8 35  1  0  0  0
  8 36  1  0  0  0
  9 14  1  0  0  0
  9 10  2  0  0  0
 10 11  1  0  0  0
 10 37  1  0  0  0
 11 12  2  0  0  0
 11 38  1  0  0  0
 12 13  1  0  0  0
 12 39  1  0  0  0
 13 14  2  0  0  0
 13 40  1  0  0  0
 14 15  1  0  0  0
 16 17  1  0  0  0
 16 18  2  0  0  0
 17 19  1  0  0  0
 17 41  1  0  0  0
 19 20  2  0  0  0
 20 42  1  0  0  0
 21 22  1  0  0  0
 21 43  1  0  0  0
 22 23  1  0  0  0
 22 44  1  0  0  0
 22 45  1  0  0  0
 23 32  1  0  0  0
 23 24  2  0  0  0
 24 25  1  0  0  0
 24 29  1  0  0  0
 25 26  1  0  0  0
 25 27  1  0  0  0
 25 28  1  0  0  0
 29 30  2  0  0  0
 29 46  1  0  0  0
 30 31  1  0  0  0
 30 47  1  0  0  0
 31 32  2  0  0  0
 31 48  1  0  0  0
 32 49  1  0  0  0
M  END
> <s_m_source_file>
/home/yujie/leadopt/data/result/selection/sEH/lig_6d.sdf

> <i_m_source_file_index>
1

> <i_lp_mmshare_version>
51139

> <i_f3d_flags>
0

> <s_epik_input>
W2NIXTFbY0hdW2NIXVtjSF1jKEMoRikoRilGKWMxW0NIMl1bTkhdQyg9TyljKFtjSF1bY0hdMilbY0hdYyhjMjMpW25IXWMoPU8pbjNbQ0gyXWM0W2NIXVtjSF1bY0hdW2NIXWM0Rg==

> <s_epik_cmdline>
J2VwaWtfcHl0aG9uJywgJy1waHQnLCAnMi4wJywgJy1waCcsICc3LjAnLCAnLXRuJywgJzgnLCAnLW1hJywgJzIwMCcsICctaW1hZScsICc8aW5maWxlLm1hZT4nLCAnLW9tYWUnLCAnPG91dGZpbGUubWFlPic=

> <r_lp_tautomer_probability>
1

> <r_epik_Ionization_Penalty>
  0.0000

> <r_epik_Ionization_Penalty_Charging>
  0.0000

> <r_epik_Ionization_Penalty_Neutral>
  0.0000

> <r_epik_State_Penalty>
 -0.0000

> <r_epik_Charging_Adjusted_Penalty>
2.36287e-05

> <i_epik_Tot_Q>
0

> <i_epik_Tot_abs_Q>
0

> <s_lp_Force_Field>
OPLS3e

> <r_lp_Energy>
33.9389

> <b_lp_Chiralities_Consistent>
1

> <s_lp_Variant>
/home/yujie/leadopt/data/result/selection/sEH/lig_6d.sdf:1-1

> <s_i_glide_gridfile>
glide-grid_sEH

> <i_i_glide_lignum>
1

> <i_i_glide_rotatable_bonds>
7

> <r_i_docking_score>
-11.3249012553636

> <r_i_glide_ligand_efficiency>
-0.353903164230113

> <r_i_glide_ligand_efficiency_sa>
-1.12357250908951

> <r_i_glide_ligand_efficiency_ln>
-2.53595409622491

> <r_i_glide_gscore>
-11.3249012553636

> <r_i_glide_lipo>
-3.94748683473735

> <r_i_glide_hbond>
-0.72

> <r_i_glide_metal>
-0

> <r_i_glide_rewards>
-3.08595275375175

> <r_i_glide_evdw>
-46.1561965942383

> <r_i_glide_ecoul>
-11.1584615707397

> <r_i_glide_erotb>
0.610117398448376

> <r_i_glide_esite>
-0.2

> <r_i_glide_emodel>
-96.342890283532

> <r_i_glide_energy>
-57.314658164978

> <r_i_glide_einternal>
5.07696485519409

> <i_i_glide_confnum>
60

> <i_i_glide_posenum>
144

> <r_i_glide_eff_state_penalty>
-0

$$$$
