/home/yujie/leadopt/data/result/selection/sEH/lig_10b.sdf:1
                    3D
 Schrodinger Suite 2020-3.
 60 63  0  0  1  0            999 V2000
   -1.5964  -15.7117   25.8955 O   0  0  0  0  0  0
   -1.2125  -15.1458   26.9158 C   0  0  0  0  0  0
   -0.1242  -14.0865   26.8596 C   0  0  0  0  0  0
    0.6429  -13.9346   25.7015 C   0  0  0  0  0  0
    1.6523  -12.9904   25.5702 C   0  0  0  0  0  0
    1.8296  -12.0742   26.6153 C   0  0  0  0  0  0
    2.6445  -10.9436   26.7494 N   0  0  0  0  0  0
    3.6183  -10.3384   25.8008 C   0  0  2  0  0  0
    3.4437  -10.7935   24.3325 C   0  0  0  0  0  0
    5.0903  -10.3677   26.2421 C   0  0  0  0  0  0
    5.4857  -10.9317   27.4629 C   0  0  0  0  0  0
    6.8058  -10.8460   27.8883 C   0  0  0  0  0  0
    7.1366  -11.3334   29.0972 F   0  0  0  0  0  0
    7.7669  -10.2429   27.0838 C   0  0  0  0  0  0
    7.4037   -9.7208   25.8434 C   0  0  0  0  0  0
    6.0711   -9.7716   25.4343 C   0  0  0  0  0  0
    2.3940  -10.3902   27.9914 C   0  0  0  0  0  0
    1.4710  -11.1341   28.6881 C   0  0  0  0  0  0
    1.0619  -12.1882   27.8166 C   0  0  0  0  0  0
    0.1089  -13.2104   27.9299 C   0  0  0  0  0  0
   -1.7582  -15.4151   28.1084 N   0  0  0  0  0  0
   -2.9153  -16.2685   28.3700 C   0  0  0  0  0  0
   -2.7374  -17.7735   28.1075 C   0  0  0  0  0  0
   -3.7427  -18.5558   27.4991 C   0  0  0  0  0  0
   -5.0249  -17.9314   26.9301 C   0  0  0  0  0  0
   -5.7280  -17.3356   27.8944 F   0  0  0  0  0  0
   -4.7193  -17.0308   25.9953 F   0  0  0  0  0  0
   -5.8092  -18.8385   26.3518 F   0  0  0  0  0  0
   -3.5353  -19.9373   27.3584 C   0  0  0  0  0  0
   -2.3290  -20.5385   27.7165 C   0  0  0  0  0  0
   -2.1202  -21.8737   27.3387 N   0  0  0  0  0  0
   -1.3251  -23.1173   28.3185 S   0  0  0  0  0  0
   -2.6206  -23.4704   29.6283 C   0  0  0  0  0  0
   -0.1331  -22.5442   28.9496 O   0  0  0  0  0  0
   -1.2168  -24.2985   27.4564 O   0  0  0  0  0  0
   -1.3333  -19.7530   28.2972 C   0  0  0  0  0  0
   -1.5388  -18.3894   28.4917 C   0  0  0  0  0  0
    0.4606  -14.5355   24.8302 H   0  0  0  0  0  0
    2.2106  -12.9694   24.6524 H   0  0  0  0  0  0
    3.3460   -9.2816   25.8026 H   0  0  0  0  0  0
    3.8420  -10.0590   23.6319 H   0  0  0  0  0  0
    3.9658  -11.7319   24.1428 H   0  0  0  0  0  0
    2.4010  -10.9330   24.0677 H   0  0  0  0  0  0
    4.7805  -11.4154   28.1197 H   0  0  0  0  0  0
    8.7853  -10.1717   27.4250 H   0  0  0  0  0  0
    8.1493   -9.2512   25.2183 H   0  0  0  0  0  0
    5.8083   -9.3240   24.4867 H   0  0  0  0  0  0
    2.9258   -9.4978   28.2923 H   0  0  0  0  0  0
    1.1063  -10.9201   29.6817 H   0  0  0  0  0  0
   -0.4826  -13.2712   28.8306 H   0  0  0  0  0  0
   -1.3411  -14.9956   28.9442 H   0  0  0  0  0  0
   -3.7645  -15.8323   27.8437 H   0  0  0  0  0  0
   -3.1596  -16.1536   29.4276 H   0  0  0  0  0  0
   -4.2892  -20.5462   26.8789 H   0  0  0  0  0  0
   -2.7559  -22.2480   26.6493 H   0  0  0  0  0  0
   -2.1935  -24.1414   30.3692 H   0  0  0  0  0  0
   -3.4781  -23.9397   29.1482 H   0  0  0  0  0  0
   -2.9208  -22.5334   30.0879 H   0  0  0  0  0  0
   -0.3803  -20.1744   28.5754 H   0  0  0  0  0  0
   -0.7518  -17.8062   28.9459 H   0  0  0  0  0  0
  1  2  2  0  0  0
  2  3  1  0  0  0
  2 21  1  0  0  0
  3 20  1  0  0  0
  3  4  2  0  0  0
  4  5  1  0  0  0
  4 38  1  0  0  0
  5  6  2  0  0  0
  5 39  1  0  0  0
  6  7  1  0  0  0
  6 19  1  0  0  0
  7  8  1  0  0  0
  7 17  1  0  0  0
  8  9  1  0  0  0
  8 10  1  0  0  0
  8 40  1  0  0  0
  9 41  1  0  0  0
  9 42  1  0  0  0
  9 43  1  0  0  0
 10 16  1  0  0  0
 10 11  2  0  0  0
 11 12  1  0  0  0
 11 44  1  0  0  0
 12 13  1  0  0  0
 12 14  2  0  0  0
 14 15  1  0  0  0
 14 45  1  0  0  0
 15 16  2  0  0  0
 15 46  1  0  0  0
 16 47  1  0  0  0
 17 18  2  0  0  0
 17 48  1  0  0  0
 18 19  1  0  0  0
 18 49  1  0  0  0
 19 20  2  0  0  0
 20 50  1  0  0  0
 21 22  1  0  0  0
 21 51  1  0  0  0
 22 23  1  0  0  0
 22 52  1  0  0  0
 22 53  1  0  0  0
 23 37  1  0  0  0
 23 24  2  0  0  0
 24 25  1  0  0  0
 24 29  1  0  0  0
 25 26  1  0  0  0
 25 27  1  0  0  0
 25 28  1  0  0  0
 29 30  2  0  0  0
 29 54  1  0  0  0
 30 31  1  0  0  0
 30 36  1  0  0  0
 31 32  1  0  0  0
 31 55  1  0  0  0
 32 33  1  0  0  0
 32 34  2  0  0  0
 32 35  2  0  0  0
 33 56  1  0  0  0
 33 57  1  0  0  0
 33 58  1  0  0  0
 36 37  2  0  0  0
 36 59  1  0  0  0
 37 60  1  0  0  0
M  END
> <s_m_source_file>
/home/yujie/leadopt/data/result/selection/sEH/lig_10b.sdf

> <i_m_source_file_index>
1

> <i_lp_mmshare_version>
51139

> <i_f3d_flags>
0

> <s_epik_input>
W0NIM11TKD1PKSg9TylbTkhdYyhbY0hdW2NIXTEpW2NIXWMoQyhGKShGKUYpYzFbQ0gyXVtOSF1DKD1PKWMoW2NIXVtjSF0yKVtjSF1jKGMyMylbY0hdW2NIXW4zW0NASF0oW0NIM10pYzRbY0hdYyhGKVtjSF1bY0hdW2NIXTQ=

> <s_epik_cmdline>
J2VwaWtfcHl0aG9uJywgJy1waHQnLCAnMi4wJywgJy1waCcsICc3LjAnLCAnLXRuJywgJzgnLCAnLW1hJywgJzIwMCcsICctaW1hZScsICc8aW5maWxlLm1hZT4nLCAnLW9tYWUnLCAnPG91dGZpbGUubWFlPic=

> <r_epik_Ionization_Penalty>
  0.0999

> <r_epik_Ionization_Penalty_Charging>
  0.0000

> <r_epik_Ionization_Penalty_Neutral>
  0.0999

> <r_epik_State_Penalty>
  0.0900

> <r_epik_Charging_Adjusted_Penalty>
0.0899504

> <i_epik_Tot_Q>
0

> <i_epik_Tot_abs_Q>
0

> <s_lp_Force_Field>
OPLS3e

> <r_lp_Energy>
39.7612

> <b_lp_Chiralities_Consistent>
1

> <s_lp_Variant>
/home/yujie/leadopt/data/result/selection/sEH/lig_10b.sdf:1-1

> <s_i_glide_gridfile>
glide-grid_sEH

> <i_i_glide_lignum>
1

> <i_i_glide_rotatable_bonds>
9

> <r_i_docking_score>
-12.6647668528668

> <r_i_glide_ligand_efficiency>
-0.342290996023428

> <r_i_glide_ligand_efficiency_sa>
-1.14058953519807

> <r_i_glide_ligand_efficiency_ln>
-2.74669102612672

> <r_i_glide_gscore>
-12.7547172528668

> <r_i_glide_lipo>
-5.1176060516528

> <r_i_glide_hbond>
-0.72

> <r_i_glide_metal>
-0

> <r_i_glide_rewards>
-2.57677251367891

> <r_i_glide_evdw>
-56.2714042663574

> <r_i_glide_ecoul>
-12.2275915145874

> <r_i_glide_erotb>
0.507370252970849

> <r_i_glide_esite>
-0.2

> <r_i_glide_emodel>
-120.607571396768

> <r_i_glide_energy>
-68.4989957809448

> <r_i_glide_einternal>
13.2397842407227

> <i_i_glide_confnum>
94

> <i_i_glide_posenum>
268

> <r_i_glide_eff_state_penalty>
0.0899504

$$$$
