/home/yujie/leadopt/data/result/selection/sEH/lig_11b.sdf:1
                    3D
 Schrodinger Suite 2020-3.
 50 53  0  0  1  0            999 V2000
   -1.3200  -15.3329   25.6952 O   0  0  0  0  0  0
   -0.9991  -14.8259   26.7742 C   0  0  0  0  0  0
    0.1289  -13.8152   26.8634 C   0  0  0  0  0  0
    0.9243  -13.5668   25.7369 C   0  0  0  0  0  0
    1.9518  -12.6227   25.7296 C   0  0  0  0  0  0
    2.1760  -11.9123   26.9152 C   0  0  0  0  0  0
    3.1051  -10.9324   27.2325 N   0  0  0  0  0  0
    4.0940  -10.3696   26.3280 C   0  0  0  0  0  0
    2.9075  -10.5328   28.5337 C   0  0  0  0  0  0
    1.8730  -11.2465   29.0950 C   0  0  0  0  0  0
    1.3888  -12.1335   28.0835 C   0  0  0  0  0  0
    0.3703  -13.0914   28.0440 C   0  0  0  0  0  0
   -1.6871  -15.0897   27.8972 N   0  0  0  0  0  0
   -2.8793  -15.9349   27.9674 C   0  0  0  0  0  0
   -2.6424  -17.4483   28.0430 C   0  0  0  0  0  0
   -3.6414  -18.3607   27.6471 C   0  0  0  0  0  0
   -5.0011  -17.8815   27.1113 C   0  0  0  0  0  0
   -5.8860  -18.8733   27.0375 F   0  0  0  0  0  0
   -5.5253  -16.9383   27.8971 F   0  0  0  0  0  0
   -4.8508  -17.3793   25.8854 F   0  0  0  0  0  0
   -3.3931  -19.7388   27.7716 C   0  0  0  0  0  0
   -2.1921  -20.2412   28.2973 C   0  0  0  0  0  0
   -1.8817  -21.5605   28.5188 N   0  5  0  0  0  0
   -2.8485  -22.7826   28.3687 S   0  0  0  0  0  0
   -2.7297  -23.1870   26.5153 C   0  0  0  0  0  0
   -1.5014  -23.9495   26.0689 C   0  0  0  0  0  0
   -2.8482  -24.6382   26.1054 C   0  0  0  0  0  0
   -2.3248  -23.9576   29.0736 O   0  0  0  0  0  0
   -4.2589  -22.4670   28.6223 O   0  0  0  0  0  0
   -1.2171  -19.3092   28.6515 C   0  0  0  0  0  0
   -1.4230  -17.9414   28.5149 C   0  0  0  0  0  0
    0.7451  -14.1183   24.8225 H   0  0  0  0  0  0
    2.5428  -12.4543   24.8420 H   0  0  0  0  0  0
    3.5879   -9.7827   25.5616 H   0  0  0  0  0  0
    4.7896   -9.7328   26.8768 H   0  0  0  0  0  0
    4.6524  -11.1775   25.8553 H   0  0  0  0  0  0
    3.5318   -9.7598   28.9572 H   0  0  0  0  0  0
    1.5085  -11.1376   30.1053 H   0  0  0  0  0  0
   -0.2271  -13.2432   28.9298 H   0  0  0  0  0  0
   -1.3289  -14.7841   28.8052 H   0  0  0  0  0  0
   -3.4411  -15.6352   28.8545 H   0  0  0  0  0  0
   -3.5015  -15.7165   27.0997 H   0  0  0  0  0  0
   -4.1598  -20.4259   27.4559 H   0  0  0  0  0  0
   -3.1498  -22.3939   25.8989 H   0  0  0  0  0  0
   -1.0559  -23.7293   25.0990 H   0  0  0  0  0  0
   -0.7506  -24.2050   26.8171 H   0  0  0  0  0  0
   -3.0443  -25.3851   26.8751 H   0  0  0  0  0  0
   -3.3290  -24.8826   25.1599 H   0  0  0  0  0  0
   -0.2795  -19.6519   29.0710 H   0  0  0  0  0  0
   -0.6362  -17.2688   28.8262 H   0  0  0  0  0  0
  1  2  2  0  0  0
  2  3  1  0  0  0
  2 13  1  0  0  0
  3 12  1  0  0  0
  3  4  2  0  0  0
  4  5  1  0  0  0
  4 32  1  0  0  0
  5  6  2  0  0  0
  5 33  1  0  0  0
  6  7  1  0  0  0
  6 11  1  0  0  0
  7  8  1  0  0  0
  7  9  1  0  0  0
  8 34  1  0  0  0
  8 35  1  0  0  0
  8 36  1  0  0  0
  9 10  2  0  0  0
  9 37  1  0  0  0
 10 11  1  0  0  0
 10 38  1  0  0  0
 11 12  2  0  0  0
 12 39  1  0  0  0
 13 14  1  0  0  0
 13 40  1  0  0  0
 14 15  1  0  0  0
 14 41  1  0  0  0
 14 42  1  0  0  0
 15 31  1  0  0  0
 15 16  2  0  0  0
 16 17  1  0  0  0
 16 21  1  0  0  0
 17 18  1  0  0  0
 17 19  1  0  0  0
 17 20  1  0  0  0
 21 22  2  0  0  0
 21 43  1  0  0  0
 22 23  1  0  0  0
 22 30  1  0  0  0
 23 24  1  0  0  0
 24 25  1  0  0  0
 24 28  2  0  0  0
 24 29  2  0  0  0
 25 27  1  0  0  0
 25 26  1  0  0  0
 25 44  1  0  0  0
 26 27  1  0  0  0
 26 45  1  0  0  0
 26 46  1  0  0  0
 27 47  1  0  0  0
 27 48  1  0  0  0
 30 31  2  0  0  0
 30 49  1  0  0  0
 31 50  1  0  0  0
M  CHG  1  23  -1
M  END
> <s_m_source_file>
/home/yujie/leadopt/data/result/selection/sEH/lig_11b.sdf

> <i_m_source_file_index>
1

> <i_lp_mmshare_version>
51139

> <i_f3d_flags>
0

> <s_epik_input>
W0NIM11uMVtjSF1bY0hdYyhjMTIpW2NIXWMoW2NIXVtjSF0yKUMoPU8pW05IXVtDSDJdYzNjKEMoRikoRilGKVtjSF1jKFtjSF1bY0hdMylbTkhdUyg9TykoPU8pW0NIXTRbQ0gyXVtDSDJdNA==

> <s_epik_cmdline>
J2VwaWtfcHl0aG9uJywgJy1waHQnLCAnMi4wJywgJy1waCcsICc3LjAnLCAnLXRuJywgJzgnLCAnLW1hJywgJzIwMCcsICctaW1hZScsICc8aW5maWxlLm1hZT4nLCAnLW9tYWUnLCAnPG91dGZpbGUubWFlPic=

> <r_epik_Ionization_Penalty>
  1.2618

> <r_epik_Ionization_Penalty_Charging>
  1.2618

> <r_epik_Ionization_Penalty_Neutral>
  0.0000

> <r_epik_State_Penalty>
  1.3325

> <r_epik_Charging_Adjusted_Penalty>
2.59425

> <i_epik_Tot_Q>
-1

> <i_epik_Tot_abs_Q>
1

> <s_lp_Force_Field>
OPLS3e

> <r_lp_Energy>
47.3694

> <b_lp_Chiralities_Consistent>
1

> <s_lp_Variant>
/home/yujie/leadopt/data/result/selection/sEH/lig_11b.sdf:1-2

> <s_i_glide_gridfile>
glide-grid_sEH

> <i_i_glide_lignum>
2

> <i_i_glide_rotatable_bonds>
8

> <r_i_docking_score>
-10.8451741353964

> <r_i_glide_ligand_efficiency>
-0.349844326948272

> <r_i_glide_ligand_efficiency_sa>
-1.09899419876621

> <r_i_glide_ligand_efficiency_ln>
-2.44591913220366

> <r_i_glide_gscore>
-12.1776441353964

> <r_i_glide_lipo>
-4.56921998890999

> <r_i_glide_hbond>
-0.72

> <r_i_glide_metal>
-0

> <r_i_glide_rewards>
-2.64246893705196

> <r_i_glide_evdw>
-50.2556381225586

> <r_i_glide_ecoul>
-14.8322019577026

> <r_i_glide_erotb>
0.69165699034884

> <r_i_glide_esite>
-0.2

> <r_i_glide_emodel>
-114.598746641084

> <r_i_glide_energy>
-65.0878400802612

> <r_i_glide_einternal>
2.7156777381897

> <i_i_glide_confnum>
30

> <i_i_glide_posenum>
38

> <r_i_glide_eff_state_penalty>
1.33247

$$$$
