/home/yujie/leadopt/data/result/selection/sEH/lig_11c.sdf:1
                    3D
 Schrodinger Suite 2020-3.
 53 56  0  0  1  0            999 V2000
   -1.3279  -15.3319   25.6566 O   0  0  0  0  0  0
   -0.9456  -14.9313   26.7588 C   0  0  0  0  0  0
    0.1949  -13.9430   26.8810 C   0  0  0  0  0  0
    1.1659  -13.8761   25.8741 C   0  0  0  0  0  0
    2.2291  -12.9742   25.9091 C   0  0  0  0  0  0
    2.2940  -12.1042   27.0033 C   0  0  0  0  0  0
    3.2055  -11.1079   27.3289 N   0  0  0  0  0  0
    4.4131  -10.7678   26.5856 C   0  0  0  0  0  0
    5.5409  -11.7637   26.9070 C   0  0  0  0  0  0
    2.8385  -10.5369   28.5261 C   0  0  0  0  0  0
    1.6837  -11.1260   28.9902 C   0  0  0  0  0  0
    1.3185  -12.1332   28.0443 C   0  0  0  0  0  0
    0.2711  -13.0608   27.9682 C   0  0  0  0  0  0
   -1.5511  -15.3083   27.8972 N   0  0  0  0  0  0
   -2.7735  -16.1080   27.9709 C   0  0  0  0  0  0
   -2.6443  -17.6434   28.0031 C   0  0  0  0  0  0
   -3.7759  -18.4584   27.7881 C   0  0  0  0  0  0
   -5.1403  -17.8672   27.4130 C   0  0  0  0  0  0
   -6.1156  -18.7731   27.4169 F   0  0  0  0  0  0
   -5.4731  -16.9323   28.2937 F   0  0  0  0  0  0
   -5.0913  -17.3275   26.1927 F   0  0  0  0  0  0
   -3.6647  -19.8420   27.9572 C   0  0  0  0  0  0
   -2.4665  -20.4688   28.2974 C   0  0  0  0  0  0
   -2.5439  -21.8197   28.5200 N   0  5  0  0  0  0
   -1.3913  -22.8635   28.3440 S   0  0  0  0  0  0
   -1.3709  -23.0989   26.4618 C   0  0  0  0  0  0
   -0.6311  -24.3008   25.9310 C   0  0  0  0  0  0
   -2.1468  -24.2697   25.8989 C   0  0  0  0  0  0
   -0.0497  -22.3873   28.6847 O   0  0  0  0  0  0
   -1.7589  -24.1619   28.9153 O   0  0  0  0  0  0
   -1.3361  -19.6501   28.4281 C   0  0  0  0  0  0
   -1.4208  -18.2629   28.2942 C   0  0  0  0  0  0
    1.1029  -14.5433   25.0250 H   0  0  0  0  0  0
    2.9641  -12.9511   25.1184 H   0  0  0  0  0  0
    4.7107   -9.7482   26.8404 H   0  0  0  0  0  0
    4.1788  -10.7700   25.5210 H   0  0  0  0  0  0
    6.4549  -11.5005   26.3737 H   0  0  0  0  0  0
    5.2710  -12.7809   26.6175 H   0  0  0  0  0  0
    5.7727  -11.7718   27.9736 H   0  0  0  0  0  0
    3.4488   -9.7527   28.9554 H   0  0  0  0  0  0
    1.1673  -10.8722   29.9014 H   0  0  0  0  0  0
   -0.4783  -13.0732   28.7467 H   0  0  0  0  0  0
   -1.1975  -14.9756   28.7970 H   0  0  0  0  0  0
   -3.2827  -15.8059   28.8874 H   0  0  0  0  0  0
   -3.4233  -15.8159   27.1459 H   0  0  0  0  0  0
   -4.5415  -20.4609   27.8333 H   0  0  0  0  0  0
   -1.3286  -22.1455   25.9376 H   0  0  0  0  0  0
   -0.0717  -24.1990   25.0001 H   0  0  0  0  0  0
   -0.1294  -24.9424   26.6517 H   0  0  0  0  0  0
   -2.7061  -24.9102   26.5814 H   0  0  0  0  0  0
   -2.6657  -24.1375   24.9508 H   0  0  0  0  0  0
   -0.3833  -20.0654   28.7111 H   0  0  0  0  0  0
   -0.5329  -17.6706   28.4614 H   0  0  0  0  0  0
  1  2  2  0  0  0
  2  3  1  0  0  0
  2 14  1  0  0  0
  3 13  1  0  0  0
  3  4  2  0  0  0
  4  5  1  0  0  0
  4 33  1  0  0  0
  5  6  2  0  0  0
  5 34  1  0  0  0
  6  7  1  0  0  0
  6 12  1  0  0  0
  7  8  1  0  0  0
  7 10  1  0  0  0
  8  9  1  0  0  0
  8 35  1  0  0  0
  8 36  1  0  0  0
  9 37  1  0  0  0
  9 38  1  0  0  0
  9 39  1  0  0  0
 10 11  2  0  0  0
 10 40  1  0  0  0
 11 12  1  0  0  0
 11 41  1  0  0  0
 12 13  2  0  0  0
 13 42  1  0  0  0
 14 15  1  0  0  0
 14 43  1  0  0  0
 15 16  1  0  0  0
 15 44  1  0  0  0
 15 45  1  0  0  0
 16 32  1  0  0  0
 16 17  2  0  0  0
 17 18  1  0  0  0
 17 22  1  0  0  0
 18 19  1  0  0  0
 18 20  1  0  0  0
 18 21  1  0  0  0
 22 23  2  0  0  0
 22 46  1  0  0  0
 23 24  1  0  0  0
 23 31  1  0  0  0
 24 25  1  0  0  0
 25 26  1  0  0  0
 25 29  2  0  0  0
 25 30  2  0  0  0
 26 28  1  0  0  0
 26 27  1  0  0  0
 26 47  1  0  0  0
 27 28  1  0  0  0
 27 48  1  0  0  0
 27 49  1  0  0  0
 28 50  1  0  0  0
 28 51  1  0  0  0
 31 32  2  0  0  0
 31 52  1  0  0  0
 32 53  1  0  0  0
M  CHG  1  24  -1
M  END
> <s_m_source_file>
/home/yujie/leadopt/data/result/selection/sEH/lig_11c.sdf

> <i_m_source_file_index>
1

> <i_lp_mmshare_version>
51139

> <i_f3d_flags>
0

> <s_epik_input>
W0NIM11bQ0gyXW4xW2NIXVtjSF1jKGMxMilbY0hdYyhbY0hdW2NIXTIpQyg9TylbTkhdW0NIMl1jM2MoQyhGKShGKUYpW2NIXWMoW2NIXVtjSF0zKVtOSF1TKD1PKSg9TylbQ0hdNFtDSDJdW0NIMl00

> <s_epik_cmdline>
J2VwaWtfcHl0aG9uJywgJy1waHQnLCAnMi4wJywgJy1waCcsICc3LjAnLCAnLXRuJywgJzgnLCAnLW1hJywgJzIwMCcsICctaW1hZScsICc8aW5maWxlLm1hZT4nLCAnLW9tYWUnLCAnPG91dGZpbGUubWFlPic=

> <r_epik_Ionization_Penalty>
  1.2618

> <r_epik_Ionization_Penalty_Charging>
  1.2618

> <r_epik_Ionization_Penalty_Neutral>
  0.0000

> <r_epik_State_Penalty>
  1.3325

> <r_epik_Charging_Adjusted_Penalty>
2.59425

> <i_epik_Tot_Q>
-1

> <i_epik_Tot_abs_Q>
1

> <s_lp_Force_Field>
OPLS3e

> <r_lp_Energy>
47.6512

> <b_lp_Chiralities_Consistent>
1

> <s_lp_Variant>
/home/yujie/leadopt/data/result/selection/sEH/lig_11c.sdf:1-2

> <s_i_glide_gridfile>
glide-grid_sEH

> <i_i_glide_lignum>
2

> <i_i_glide_rotatable_bonds>
9

> <r_i_docking_score>
-11.0355211059269

> <r_i_glide_ligand_efficiency>
-0.344860034560217

> <r_i_glide_ligand_efficiency_sa>
-1.09486236202052

> <r_i_glide_ligand_efficiency_ln>
-2.47115399256109

> <r_i_glide_gscore>
-12.3679911059269

> <r_i_glide_lipo>
-4.57487719089815

> <r_i_glide_hbond>
-0.72

> <r_i_glide_metal>
-0

> <r_i_glide_rewards>
-2.64808576654975

> <r_i_glide_evdw>
-52.6893157958984

> <r_i_glide_ecoul>
-14.8267688751221

> <r_i_glide_erotb>
0.654102390399487

> <r_i_glide_esite>
-0.220649417815289

> <r_i_glide_emodel>
-116.973797902808

> <r_i_glide_energy>
-67.5160846710205

> <r_i_glide_einternal>
7.28193807601929

> <i_i_glide_confnum>
54

> <i_i_glide_posenum>
235

> <r_i_glide_eff_state_penalty>
1.33247

$$$$
