/home/yujie/leadopt/data/result/selection/sEH/lig_6e.sdf:1
                    3D
 Schrodinger Suite 2020-3.
 49 52  0  0  1  0            999 V2000
   -1.6351  -15.9489   25.8972 O   0  0  0  0  0  0
   -1.3293  -15.3415   26.9177 C   0  0  0  0  0  0
   -0.2510  -14.2866   26.8784 C   0  0  0  0  0  0
    0.6257  -14.1977   25.7791 C   0  0  0  0  0  0
    1.5445  -13.1549   25.6552 C   0  0  0  0  0  0
    1.6131  -12.2260   26.6853 C   0  0  0  0  0  0
    2.3849  -11.1055   26.8740 N   0  0  0  0  0  0
    3.3949  -10.5563   25.9595 C   0  0  0  0  0  0
    4.8371  -10.9262   26.2853 C   0  0  0  0  0  0
    5.1298  -12.0190   27.1066 C   0  0  0  0  0  0
    6.4373  -12.2966   27.4714 C   0  0  0  0  0  0
    6.6714  -13.3327   28.2972 F   0  0  0  0  0  0
    7.4809  -11.5061   26.9960 C   0  0  0  0  0  0
    7.2051  -10.4254   26.1564 C   0  0  0  0  0  0
    5.8847  -10.1337   25.8057 C   0  0  0  0  0  0
    2.1973  -10.6206   28.1263 C   0  0  0  0  0  0
    1.1863  -11.3383   28.6443 N   0  0  0  0  0  0
    2.8150   -9.7333   28.6865 O   0  0  0  0  0  0
    0.8264  -12.3438   27.7945 C   0  0  0  0  0  0
   -0.1378  -13.3326   27.8972 C   0  0  0  0  0  0
   -1.9938  -15.5216   28.0697 N   0  0  0  0  0  0
   -3.2070  -16.3242   28.2368 C   0  0  0  0  0  0
   -3.0767  -17.8294   27.9498 C   0  0  0  0  0  0
   -4.0725  -18.5637   27.2652 C   0  0  0  0  0  0
   -5.2652  -17.8817   26.5805 C   0  0  0  0  0  0
   -6.0619  -17.3354   27.4970 F   0  0  0  0  0  0
   -4.8412  -16.9332   25.7440 F   0  0  0  0  0  0
   -5.9922  -18.7331   25.8570 F   0  0  0  0  0  0
   -3.9471  -19.9598   27.1822 C   0  0  0  0  0  0
   -2.8318  -20.6133   27.7031 C   0  0  0  0  0  0
   -1.8122  -19.8778   28.2973 C   0  0  0  0  0  0
   -1.9350  -18.4964   28.4137 C   0  0  0  0  0  0
    0.6003  -14.9319   24.9971 H   0  0  0  0  0  0
    2.1826  -13.0916   24.7861 H   0  0  0  0  0  0
    3.1739  -10.8860   24.9443 H   0  0  0  0  0  0
    3.3016   -9.4693   25.9552 H   0  0  0  0  0  0
    4.3477  -12.6510   27.4972 H   0  0  0  0  0  0
    8.4964  -11.7301   27.2822 H   0  0  0  0  0  0
    8.0108   -9.8079   25.7885 H   0  0  0  0  0  0
    5.6773   -9.2833   25.1724 H   0  0  0  0  0  0
    0.8182  -11.2020   29.5732 H   0  0  0  0  0  0
   -0.8110  -13.3328   28.7346 H   0  0  0  0  0  0
   -1.6397  -15.0700   28.9143 H   0  0  0  0  0  0
   -3.9997  -15.8427   27.6674 H   0  0  0  0  0  0
   -3.5141  -16.2221   29.2788 H   0  0  0  0  0  0
   -4.7013  -20.5539   26.6864 H   0  0  0  0  0  0
   -2.7456  -21.6866   27.6187 H   0  0  0  0  0  0
   -0.9330  -20.3748   28.6825 H   0  0  0  0  0  0
   -1.1504  -17.9458   28.9143 H   0  0  0  0  0  0
  1  2  2  0  0  0
  2  3  1  0  0  0
  2 21  1  0  0  0
  3 20  1  0  0  0
  3  4  2  0  0  0
  4  5  1  0  0  0
  4 33  1  0  0  0
  5  6  2  0  0  0
  5 34  1  0  0  0
  6  7  1  0  0  0
  6 19  1  0  0  0
  7  8  1  0  0  0
  7 16  1  0  0  0
  8  9  1  0  0  0
  8 35  1  0  0  0
  8 36  1  0  0  0
  9 15  1  0  0  0
  9 10  2  0  0  0
 10 11  1  0  0  0
 10 37  1  0  0  0
 11 12  1  0  0  0
 11 13  2  0  0  0
 13 14  1  0  0  0
 13 38  1  0  0  0
 14 15  2  0  0  0
 14 39  1  0  0  0
 15 40  1  0  0  0
 16 17  1  0  0  0
 16 18  2  0  0  0
 17 19  1  0  0  0
 17 41  1  0  0  0
 19 20  2  0  0  0
 20 42  1  0  0  0
 21 22  1  0  0  0
 21 43  1  0  0  0
 22 23  1  0  0  0
 22 44  1  0  0  0
 22 45  1  0  0  0
 23 32  1  0  0  0
 23 24  2  0  0  0
 24 25  1  0  0  0
 24 29  1  0  0  0
 25 26  1  0  0  0
 25 27  1  0  0  0
 25 28  1  0  0  0
 29 30  2  0  0  0
 29 46  1  0  0  0
 30 31  1  0  0  0
 30 47  1  0  0  0
 31 32  2  0  0  0
 31 48  1  0  0  0
 32 49  1  0  0  0
M  END
> <s_m_source_file>
/home/yujie/leadopt/data/result/selection/sEH/lig_6e.sdf

> <i_m_source_file_index>
1

> <i_lp_mmshare_version>
51139

> <i_f3d_flags>
0

> <s_epik_input>
W2NIXTFbY0hdW2NIXVtjSF1jKEMoRikoRilGKWMxW0NIMl1bTkhdQyg9TyljKFtjSF1bY0hdMilbY0hdYyhjMjMpW25IXWMoPU8pbjNbQ0gyXWM0W2NIXWMoRilbY0hdW2NIXVtjSF00

> <s_epik_cmdline>
J2VwaWtfcHl0aG9uJywgJy1waHQnLCAnMi4wJywgJy1waCcsICc3LjAnLCAnLXRuJywgJzgnLCAnLW1hJywgJzIwMCcsICctaW1hZScsICc8aW5maWxlLm1hZT4nLCAnLW9tYWUnLCAnPG91dGZpbGUubWFlPic=

> <r_lp_tautomer_probability>
1

> <r_epik_Ionization_Penalty>
  0.0000

> <r_epik_Ionization_Penalty_Charging>
  0.0000

> <r_epik_Ionization_Penalty_Neutral>
  0.0000

> <r_epik_State_Penalty>
 -0.0000

> <r_epik_Charging_Adjusted_Penalty>
2.36287e-05

> <i_epik_Tot_Q>
0

> <i_epik_Tot_abs_Q>
0

> <s_lp_Force_Field>
OPLS3e

> <r_lp_Energy>
34.6582

> <b_lp_Chiralities_Consistent>
1

> <s_lp_Variant>
/home/yujie/leadopt/data/result/selection/sEH/lig_6e.sdf:1-1

> <s_i_glide_gridfile>
glide-grid_sEH

> <i_i_glide_lignum>
1

> <i_i_glide_rotatable_bonds>
7

> <r_i_docking_score>
-11.1406363943612

> <r_i_glide_ligand_efficiency>
-0.348144887323789

> <r_i_glide_ligand_efficiency_sa>
-1.10529111947338

> <r_i_glide_ligand_efficiency_ln>
-2.49469217097607

> <r_i_glide_gscore>
-11.1406363943612

> <r_i_glide_lipo>
-3.95301914315746

> <r_i_glide_hbond>
-0.675968125917705

> <r_i_glide_metal>
-0

> <r_i_glide_rewards>
-3.08518128813875

> <r_i_glide_evdw>
-47.0840110778809

> <r_i_glide_ecoul>
-9.88256454467773

> <r_i_glide_erotb>
0.610117398448376

> <r_i_glide_esite>
-0.2

> <r_i_glide_emodel>
-95.7495955525556

> <r_i_glide_energy>
-56.9665756225586

> <r_i_glide_einternal>
4.48090982437134

> <i_i_glide_confnum>
73

> <i_i_glide_posenum>
319

> <r_i_glide_eff_state_penalty>
-0

$$$$
