/home/yujie/leadopt/data/result/selection/sEH/lig_6m.sdf:1
                    3D
 Schrodinger Suite 2020-3.
 52 55  0  0  1  0            999 V2000
   -1.4447  -15.7334   25.8397 O   0  0  0  0  0  0
   -1.2422  -15.0192   26.8121 C   0  0  0  0  0  0
   -0.1306  -14.0022   26.7974 C   0  0  0  0  0  0
    0.6468  -13.7916   25.6351 C   0  0  0  0  0  0
    1.6774  -12.8454   25.6136 C   0  0  0  0  0  0
    1.9328  -12.1294   26.7802 C   0  0  0  0  0  0
    2.8606  -11.1652   27.1110 N   0  0  0  0  0  0
    3.8250  -10.5058   26.2203 C   0  0  0  0  0  0
    5.2339  -11.1108   26.1135 C   0  0  0  0  0  0
    5.8568  -11.6303   27.2594 C   0  0  0  0  0  0
    7.1532  -12.1326   27.2059 C   0  0  0  0  0  0
    7.8469  -12.1355   26.0016 C   0  0  0  0  0  0
    7.2409  -11.6391   24.8502 C   0  0  0  0  0  0
    5.9361  -11.1211   24.8853 C   0  0  0  0  0  0
    5.3242  -10.5577   23.5943 C   0  0  0  0  0  0
    4.2731  -11.2954   23.2370 F   0  0  0  0  0  0
    4.9298   -9.2973   23.7829 F   0  0  0  0  0  0
    6.1848  -10.5592   22.5735 F   0  0  0  0  0  0
    2.7577  -10.8603   28.4298 C   0  0  0  0  0  0
    1.6990  -11.5419   28.8841 N   0  0  0  0  0  0
    3.4711  -10.1329   29.0949 O   0  0  0  0  0  0
    1.1959  -12.3440   27.9082 C   0  0  0  0  0  0
    0.1525  -13.2440   27.9411 C   0  0  0  0  0  0
   -2.0279  -15.0764   27.8973 N   0  0  0  0  0  0
   -3.1591  -15.9875   28.0740 C   0  0  0  0  0  0
   -2.8179  -17.4880   28.0721 C   0  0  0  0  0  0
   -3.6805  -18.4523   27.5019 C   0  0  0  0  0  0
   -4.9964  -18.0581   26.8189 C   0  0  0  0  0  0
   -5.7318  -17.3339   27.6574 F   0  0  0  0  0  0
   -4.7477  -17.3325   25.7273 F   0  0  0  0  0  0
   -5.7263  -19.1129   26.4502 F   0  0  0  0  0  0
   -3.3239  -19.8085   27.5656 C   0  0  0  0  0  0
   -2.1290  -20.2090   28.1594 C   0  0  0  0  0  0
   -1.2669  -19.2576   28.6938 C   0  0  0  0  0  0
   -1.6062  -17.9076   28.6432 C   0  0  0  0  0  0
    0.4575  -14.3533   24.7319 H   0  0  0  0  0  0
    2.2562  -12.6932   24.7139 H   0  0  0  0  0  0
    3.3522  -10.4576   25.2421 H   0  0  0  0  0  0
    3.9401   -9.4685   26.5396 H   0  0  0  0  0  0
    5.3568  -11.6322   28.2147 H   0  0  0  0  0  0
    7.6177  -12.5149   28.1030 H   0  0  0  0  0  0
    8.8542  -12.5245   25.9598 H   0  0  0  0  0  0
    7.8049  -11.6547   23.9284 H   0  0  0  0  0  0
    1.3804  -11.5154   29.8411 H   0  0  0  0  0  0
   -0.4184  -13.3327   28.8501 H   0  0  0  0  0  0
   -1.7360  -14.5895   28.7459 H   0  0  0  0  0  0
   -3.8935  -15.7327   27.3118 H   0  0  0  0  0  0
   -3.6270  -15.7538   29.0326 H   0  0  0  0  0  0
   -3.9679  -20.5681   27.1463 H   0  0  0  0  0  0
   -1.8674  -21.2563   28.1960 H   0  0  0  0  0  0
   -0.3342  -19.5655   29.1475 H   0  0  0  0  0  0
   -0.9288  -17.1855   29.0783 H   0  0  0  0  0  0
  1  2  2  0  0  0
  2  3  1  0  0  0
  2 24  1  0  0  0
  3 23  1  0  0  0
  3  4  2  0  0  0
  4  5  1  0  0  0
  4 36  1  0  0  0
  5  6  2  0  0  0
  5 37  1  0  0  0
  6  7  1  0  0  0
  6 22  1  0  0  0
  7  8  1  0  0  0
  7 19  1  0  0  0
  8  9  1  0  0  0
  8 38  1  0  0  0
  8 39  1  0  0  0
  9 14  1  0  0  0
  9 10  2  0  0  0
 10 11  1  0  0  0
 10 40  1  0  0  0
 11 12  2  0  0  0
 11 41  1  0  0  0
 12 13  1  0  0  0
 12 42  1  0  0  0
 13 14  2  0  0  0
 13 43  1  0  0  0
 14 15  1  0  0  0
 15 16  1  0  0  0
 15 17  1  0  0  0
 15 18  1  0  0  0
 19 20  1  0  0  0
 19 21  2  0  0  0
 20 22  1  0  0  0
 20 44  1  0  0  0
 22 23  2  0  0  0
 23 45  1  0  0  0
 24 25  1  0  0  0
 24 46  1  0  0  0
 25 26  1  0  0  0
 25 47  1  0  0  0
 25 48  1  0  0  0
 26 35  1  0  0  0
 26 27  2  0  0  0
 27 28  1  0  0  0
 27 32  1  0  0  0
 28 29  1  0  0  0
 28 30  1  0  0  0
 28 31  1  0  0  0
 32 33  2  0  0  0
 32 49  1  0  0  0
 33 34  1  0  0  0
 33 50  1  0  0  0
 34 35  2  0  0  0
 34 51  1  0  0  0
 35 52  1  0  0  0
M  END
> <s_m_source_file>
/home/yujie/leadopt/data/result/selection/sEH/lig_6m.sdf

> <i_m_source_file_index>
1

> <i_lp_mmshare_version>
51139

> <i_f3d_flags>
0

> <s_epik_input>
W2NIXTFbY0hdW2NIXVtjSF1jKEMoRikoRilGKWMxW0NIMl1bTkhdQyg9TyljKFtjSF1bY0hdMilbY0hdYyhjMjMpW25IXWMoPU8pbjNbQ0gyXWM0W2NIXVtjSF1bY0hdW2NIXWM0QyhGKShGKUY=

> <s_epik_cmdline>
J2VwaWtfcHl0aG9uJywgJy1waHQnLCAnMi4wJywgJy1waCcsICc3LjAnLCAnLXRuJywgJzgnLCAnLW1hJywgJzIwMCcsICctaW1hZScsICc8aW5maWxlLm1hZT4nLCAnLW9tYWUnLCAnPG91dGZpbGUubWFlPic=

> <r_lp_tautomer_probability>
1

> <r_epik_Ionization_Penalty>
  0.0000

> <r_epik_Ionization_Penalty_Charging>
  0.0000

> <r_epik_Ionization_Penalty_Neutral>
  0.0000

> <r_epik_State_Penalty>
 -0.0000

> <r_epik_Charging_Adjusted_Penalty>
2.36287e-05

> <i_epik_Tot_Q>
0

> <i_epik_Tot_abs_Q>
0

> <s_lp_Force_Field>
OPLS3e

> <r_lp_Energy>
38.8158

> <b_lp_Chiralities_Consistent>
1

> <s_lp_Variant>
/home/yujie/leadopt/data/result/selection/sEH/lig_6m.sdf:1-1

> <s_i_glide_gridfile>
glide-grid_sEH

> <i_i_glide_lignum>
1

> <i_i_glide_rotatable_bonds>
8

> <r_i_docking_score>
-11.0227358191777

> <r_i_glide_ligand_efficiency>
-0.314935309119362

> <r_i_glide_ligand_efficiency_sa>
-1.0301742783283

> <r_i_glide_ligand_efficiency_ln>
-2.41973514875034

> <r_i_glide_gscore>
-11.0227358191777

> <r_i_glide_lipo>
-3.96359987476053

> <r_i_glide_hbond>
-0.696901324100807

> <r_i_glide_metal>
-0

> <r_i_glide_rewards>
-2.7449873109857

> <r_i_glide_evdw>
-48.8080558776855

> <r_i_glide_ecoul>
-9.85946559906006

> <r_i_glide_erotb>
0.502075324412671

> <r_i_glide_esite>
-0.2

> <r_i_glide_emodel>
-98.8673558641309

> <r_i_glide_energy>
-58.6675214767456

> <r_i_glide_einternal>
3.08864974975586

> <i_i_glide_confnum>
89

> <i_i_glide_posenum>
18

> <r_i_glide_eff_state_penalty>
-0

$$$$
