/home/yujie/leadopt/data/result/selection/sEH/lig_9b.sdf:1
                    3D
 Schrodinger Suite 2020-3.
 53 56  0  0  1  0            999 V2000
   -1.3295  -15.3330   25.6754 O   0  0  0  0  0  0
   -1.0097  -14.8956   26.7797 C   0  0  0  0  0  0
    0.1146  -13.8898   26.8910 C   0  0  0  0  0  0
    0.9403  -13.6608   25.7809 C   0  0  0  0  0  0
    1.9408  -12.6927   25.7706 C   0  0  0  0  0  0
    2.1043  -11.9350   26.9342 C   0  0  0  0  0  0
    2.9623  -10.8876   27.2267 N   0  0  0  0  0  0
    3.9689  -10.3259   26.3365 C   0  0  0  0  0  0
    5.3365  -10.9783   26.4680 C   0  0  0  0  0  0
    5.8887  -11.6844   25.3939 C   0  0  0  0  0  0
    7.1539  -12.2604   25.5097 C   0  0  0  0  0  0
    7.6858  -12.9394   24.4706 F   0  0  0  0  0  0
    7.8714  -12.1335   26.6986 C   0  0  0  0  0  0
    7.3250  -11.4355   27.7740 C   0  0  0  0  0  0
    6.0620  -10.8600   27.6584 C   0  0  0  0  0  0
    2.7767  -10.5125   28.5367 C   0  0  0  0  0  0
    1.7610  -11.2474   29.0981 C   0  0  0  0  0  0
    1.3045  -12.1542   28.0944 C   0  0  0  0  0  0
    0.3055  -13.1336   28.0568 C   0  0  0  0  0  0
   -1.6916  -15.2092   27.8972 N   0  0  0  0  0  0
   -2.9513  -15.9560   27.9503 C   0  0  0  0  0  0
   -2.8695  -17.4810   28.0165 C   0  0  0  0  0  0
   -4.0514  -18.2142   27.8965 C   0  0  0  0  0  0
   -5.2324  -17.5824   27.7021 F   0  0  0  0  0  0
   -4.0305  -19.6021   27.9919 C   0  0  0  0  0  0
   -2.8465  -20.3109   28.2043 C   0  0  0  0  0  0
   -2.9738  -21.6719   28.3257 N   0  5  0  0  0  0
   -1.8309  -22.7303   28.1542 S   0  0  0  0  0  0
   -1.5907  -22.7709   26.2961 C   0  0  0  0  0  0
   -2.2899  -24.0767   28.5004 O   0  0  0  0  0  0
   -0.5285  -22.3389   28.6972 O   0  0  0  0  0  0
   -1.6603  -19.5630   28.2968 C   0  0  0  0  0  0
   -1.6669  -18.1693   28.2085 C   0  0  0  0  0  0
    0.7995  -14.2340   24.8740 H   0  0  0  0  0  0
    2.5448  -12.5312   24.8898 H   0  0  0  0  0  0
    3.6000  -10.3899   25.3115 H   0  0  0  0  0  0
    4.0540   -9.2634   26.5477 H   0  0  0  0  0  0
    5.3453  -11.7892   24.4665 H   0  0  0  0  0  0
    8.8486  -12.5832   26.7824 H   0  0  0  0  0  0
    7.8718  -11.3315   28.6988 H   0  0  0  0  0  0
    5.6568  -10.3138   28.4983 H   0  0  0  0  0  0
    3.3893   -9.7329   28.9641 H   0  0  0  0  0  0
    1.3999  -11.1492   30.1100 H   0  0  0  0  0  0
   -0.3131  -13.2739   28.9279 H   0  0  0  0  0  0
   -1.3289  -14.9327   28.8116 H   0  0  0  0  0  0
   -3.5810  -15.6960   27.0984 H   0  0  0  0  0  0
   -3.4888  -15.6184   28.8379 H   0  0  0  0  0  0
   -4.9656  -20.1360   27.8996 H   0  0  0  0  0  0
   -0.7921  -23.4742   26.0705 H   0  0  0  0  0  0
   -1.3290  -21.7719   25.9560 H   0  0  0  0  0  0
   -2.5248  -23.0930   25.8391 H   0  0  0  0  0  0
   -0.7080  -20.0365   28.4658 H   0  0  0  0  0  0
   -0.7337  -17.6335   28.3071 H   0  0  0  0  0  0
  1  2  2  0  0  0
  2  3  1  0  0  0
  2 20  1  0  0  0
  3 19  1  0  0  0
  3  4  2  0  0  0
  4  5  1  0  0  0
  4 34  1  0  0  0
  5  6  2  0  0  0
  5 35  1  0  0  0
  6  7  1  0  0  0
  6 18  1  0  0  0
  7  8  1  0  0  0
  7 16  1  0  0  0
  8  9  1  0  0  0
  8 36  1  0  0  0
  8 37  1  0  0  0
  9 15  1  0  0  0
  9 10  2  0  0  0
 10 11  1  0  0  0
 10 38  1  0  0  0
 11 12  1  0  0  0
 11 13  2  0  0  0
 13 14  1  0  0  0
 13 39  1  0  0  0
 14 15  2  0  0  0
 14 40  1  0  0  0
 15 41  1  0  0  0
 16 17  2  0  0  0
 16 42  1  0  0  0
 17 18  1  0  0  0
 17 43  1  0  0  0
 18 19  2  0  0  0
 19 44  1  0  0  0
 20 21  1  0  0  0
 20 45  1  0  0  0
 21 22  1  0  0  0
 21 46  1  0  0  0
 21 47  1  0  0  0
 22 33  1  0  0  0
 22 23  2  0  0  0
 23 24  1  0  0  0
 23 25  1  0  0  0
 25 26  2  0  0  0
 25 48  1  0  0  0
 26 27  1  0  0  0
 26 32  1  0  0  0
 27 28  1  0  0  0
 28 29  1  0  0  0
 28 30  2  0  0  0
 28 31  2  0  0  0
 29 49  1  0  0  0
 29 50  1  0  0  0
 29 51  1  0  0  0
 32 33  2  0  0  0
 32 52  1  0  0  0
 33 53  1  0  0  0
M  CHG  1  27  -1
M  END
> <s_m_source_file>
/home/yujie/leadopt/data/result/selection/sEH/lig_9b.sdf

> <i_m_source_file_index>
1

> <i_lp_mmshare_version>
51139

> <i_f3d_flags>
0

> <s_epik_input>
W0NIM11TKD1PKSg9TylbTkhdYyhbY0hdW2NIXTEpW2NIXWMoRiljMVtDSDJdW05IXUMoPU8pYyhbY0hdW2NIXTIpW2NIXWMoYzIzKVtjSF1bY0hdbjNbQ0gyXWM0W2NIXWMoRilbY0hdW2NIXVtjSF00

> <s_epik_cmdline>
J2VwaWtfcHl0aG9uJywgJy1waHQnLCAnMi4wJywgJy1waCcsICc3LjAnLCAnLXRuJywgJzgnLCAnLW1hJywgJzIwMCcsICctaW1hZScsICc8aW5maWxlLm1hZT4nLCAnLW9tYWUnLCAnPG91dGZpbGUubWFlPic=

> <r_epik_Ionization_Penalty>
  1.3909

> <r_epik_Ionization_Penalty_Charging>
  1.3909

> <r_epik_Ionization_Penalty_Neutral>
  0.0000

> <r_epik_State_Penalty>
  1.4723

> <r_epik_Charging_Adjusted_Penalty>
2.8632

> <i_epik_Tot_Q>
-1

> <i_epik_Tot_abs_Q>
1

> <s_lp_Force_Field>
OPLS3e

> <r_lp_Energy>
30.967

> <b_lp_Chiralities_Consistent>
1

> <s_lp_Variant>
/home/yujie/leadopt/data/result/selection/sEH/lig_9b.sdf:1-2

> <s_i_glide_gridfile>
glide-grid_sEH

> <i_i_glide_lignum>
2

> <i_i_glide_rotatable_bonds>
8

> <r_i_docking_score>
-10.7938969134853

> <r_i_glide_ligand_efficiency>
-0.327087785257132

> <r_i_glide_ligand_efficiency_sa>
-1.04914529891177

> <r_i_glide_ligand_efficiency_ln>
-2.40050678575197

> <r_i_glide_gscore>
-12.2661669134853

> <r_i_glide_lipo>
-4.60577099242435

> <r_i_glide_hbond>
-0.72

> <r_i_glide_metal>
-0

> <r_i_glide_rewards>
-2.34846367814429

> <r_i_glide_evdw>
-55.8890647888184

> <r_i_glide_ecoul>
-14.9426374435425

> <r_i_glide_erotb>
0.643916613055591

> <r_i_glide_esite>
-0.2

> <r_i_glide_emodel>
-121.966297434439

> <r_i_glide_energy>
-70.8317022323608

> <r_i_glide_einternal>
6.24410438537598

> <i_i_glide_confnum>
154

> <i_i_glide_posenum>
108

> <r_i_glide_eff_state_penalty>
1.47227

$$$$
