/home/yujie/leadopt/data/result/selection/CDK9/lig_3.sdf:1
                    3D
 Schrodinger Suite 2020-3.
 54 58  0  0  1  0            999 V2000
  -41.2131  -36.3591   -0.1038 C   0  0  0  0  0  0
  -40.6007  -37.0490   -1.1893 O   0  0  0  0  0  0
  -40.1936  -36.3479   -2.3127 C   0  0  0  0  0  0
  -40.3385  -34.9545   -2.4435 C   0  0  0  0  0  0
  -39.8613  -34.2924   -3.5724 C   0  0  0  0  0  0
  -39.2427  -35.0083   -4.5875 C   0  0  0  0  0  0
  -39.1050  -36.3870   -4.4793 C   0  0  0  0  0  0
  -39.5778  -37.0728   -3.3542 C   0  0  0  0  0  0
  -39.3763  -38.5469   -3.2879 C   0  0  0  0  0  0
  -38.0923  -39.0889   -3.4566 C   0  0  0  0  0  0
  -37.8978  -40.4706   -3.4057 C   0  0  0  0  0  0
  -38.8849  -41.3825   -3.2064 N   0  0  0  0  0  0
  -40.0970  -40.8510   -3.0564 C   0  0  0  0  0  0
  -40.4248  -39.4745   -3.0728 C   0  0  0  0  0  0
  -41.7752  -39.3121   -2.8615 N   0  0  0  0  0  0
  -42.2485  -40.5265   -2.6641 C   0  0  0  0  0  0
  -41.2778  -41.4935   -2.7937 N   0  0  0  0  0  0
  -43.6703  -40.8531   -2.3295 C   0  0  0  0  0  0
  -44.5137  -39.8797   -1.7842 C   0  0  0  0  0  0
  -45.8311  -40.1930   -1.4567 C   0  0  0  0  0  0
  -46.3232  -41.4806   -1.6847 C   0  0  0  0  0  0
  -45.4836  -42.4564   -2.2247 C   0  0  0  0  0  0
  -44.1660  -42.1453   -2.5447 C   0  0  0  0  0  0
  -47.7658  -41.8399   -1.3217 C   0  0  0  0  0  0
  -48.7729  -41.4563   -2.3188 N   0  0  0  0  0  0
  -48.6042  -42.0757   -3.6391 C   0  0  0  0  0  0
  -49.7784  -41.7083   -4.5744 C   0  0  0  0  0  0
  -49.9561  -40.2939   -4.6328 O   0  0  0  0  0  0
  -50.2180  -39.7295   -3.3478 C   0  0  0  0  0  0
  -49.0434  -40.0162   -2.3888 C   0  0  0  0  0  0
  -39.9904  -32.9513   -3.6881 F   0  0  0  0  0  0
  -41.4514  -42.4848   -2.6569 H   0  0  0  0  0  0
  -41.4741  -37.0769    0.6746 H   0  0  0  0  0  0
  -40.5396  -35.6255    0.3401 H   0  0  0  0  0  0
  -42.1338  -35.8610   -0.4097 H   0  0  0  0  0  0
  -40.8086  -34.3631   -1.6725 H   0  0  0  0  0  0
  -38.8671  -34.4925   -5.4552 H   0  0  0  0  0  0
  -38.6222  -36.9291   -5.2802 H   0  0  0  0  0  0
  -37.2434  -38.4381   -3.6177 H   0  0  0  0  0  0
  -36.9042  -40.8759   -3.5262 H   0  0  0  0  0  0
  -44.1467  -38.8807   -1.5962 H   0  0  0  0  0  0
  -46.4659  -39.4415   -1.0077 H   0  0  0  0  0  0
  -45.8467  -43.4632   -2.3873 H   0  0  0  0  0  0
  -43.5387  -42.9216   -2.9586 H   0  0  0  0  0  0
  -48.0291  -41.3855   -0.3666 H   0  0  0  0  0  0
  -47.8304  -42.9152   -1.1508 H   0  0  0  0  0  0
  -48.5548  -43.1595   -3.5222 H   0  0  0  0  0  0
  -47.6527  -41.7709   -4.0768 H   0  0  0  0  0  0
  -49.5794  -42.0776   -5.5802 H   0  0  0  0  0  0
  -50.6990  -42.1928   -4.2459 H   0  0  0  0  0  0
  -50.3525  -38.6536   -3.4561 H   0  0  0  0  0  0
  -51.1545  -40.1198   -2.9408 H   0  0  0  0  0  0
  -48.1506  -39.4743   -2.7035 H   0  0  0  0  0  0
  -49.2890  -39.6484   -1.3909 H   0  0  0  0  0  0
  1  2  1  0  0  0
  1 33  1  0  0  0
  1 34  1  0  0  0
  1 35  1  0  0  0
  2  3  1  0  0  0
  3  8  1  0  0  0
  3  4  2  0  0  0
  4  5  1  0  0  0
  4 36  1  0  0  0
  5  6  2  0  0  0
  5 31  1  0  0  0
  6  7  1  0  0  0
  6 37  1  0  0  0
  7  8  2  0  0  0
  7 38  1  0  0  0
  8  9  1  0  0  0
  9 14  1  0  0  0
  9 10  2  0  0  0
 10 11  1  0  0  0
 10 39  1  0  0  0
 11 12  2  0  0  0
 11 40  1  0  0  0
 12 13  1  0  0  0
 13 17  1  0  0  0
 13 14  2  0  0  0
 14 15  1  0  0  0
 15 16  2  0  0  0
 16 17  1  0  0  0
 16 18  1  0  0  0
 17 32  1  0  0  0
 18 23  1  0  0  0
 18 19  2  0  0  0
 19 20  1  0  0  0
 19 41  1  0  0  0
 20 21  2  0  0  0
 20 42  1  0  0  0
 21 22  1  0  0  0
 21 24  1  0  0  0
 22 23  2  0  0  0
 22 43  1  0  0  0
 23 44  1  0  0  0
 24 25  1  0  0  0
 24 45  1  0  0  0
 24 46  1  0  0  0
 25 30  1  0  0  0
 25 26  1  0  0  0
 26 27  1  0  0  0
 26 47  1  0  0  0
 26 48  1  0  0  0
 27 28  1  0  0  0
 27 49  1  0  0  0
 27 50  1  0  0  0
 28 29  1  0  0  0
 29 30  1  0  0  0
 29 51  1  0  0  0
 29 52  1  0  0  0
 30 53  1  0  0  0
 30 54  1  0  0  0
M  END
> <s_m_source_file>
/home/yujie/leadopt/data/result/selection/CDK9/lig_3.sdf

> <i_m_source_file_index>
1

> <i_lp_mmshare_version>
51139

> <i_f3d_flags>
0

> <s_epik_input>
W0NIM11PYzFbY0hdYyhGKVtjSF1bY0hdYzEtYyhbY0hdW2NIXW4yKWMoYzIzKW5jKFtuSF0zKS1jNFtjSF1bY0hdYyhbY0hdW2NIXTQpW0NIMl1ONVtDSDJdW0NIMl1PW0NIMl1bQ0gyXTU=

> <s_epik_cmdline>
J2VwaWtfcHl0aG9uJywgJy1waHQnLCAnMi4wJywgJy1waCcsICc3LjAnLCAnLXRuJywgJzgnLCAnLW1hJywgJzIwMCcsICctaW1hZScsICc8aW5maWxlLm1hZT4nLCAnLW9tYWUnLCAnPG91dGZpbGUubWFlPic=

> <r_lp_tautomer_probability>
0.357409

> <r_epik_Ionization_Penalty>
  0.2857

> <r_epik_Ionization_Penalty_Charging>
  0.0010

> <r_epik_Ionization_Penalty_Neutral>
  0.2847

> <r_epik_State_Penalty>
  0.9016

> <r_epik_Charging_Adjusted_Penalty>
0.90254

> <i_epik_Tot_Q>
0

> <i_epik_Tot_abs_Q>
0

> <s_lp_Force_Field>
OPLS3e

> <r_lp_Energy>
49.0705

> <b_lp_Chiralities_Consistent>
1

> <s_lp_Variant>
/home/yujie/leadopt/data/result/selection/CDK9/lig_3.sdf:1-3

> <s_i_glide_gridfile>
glide-grid_CDK9

> <i_i_glide_lignum>
3

> <i_i_glide_rotatable_bonds>
5

> <r_i_docking_score>
-8.38425178611241

> <r_i_glide_ligand_efficiency>
-0.270459735035884

> <r_i_glide_ligand_efficiency_sa>
-0.849616977920104

> <r_i_glide_ligand_efficiency_ln>
-1.89090572422749

> <r_i_glide_gscore>
-9.28582678611241

> <r_i_glide_lipo>
-2.64417258804912

> <r_i_glide_hbond>
-0.746027370108767

> <r_i_glide_metal>
-0

> <r_i_glide_rewards>
-2.30676413800455

> <r_i_glide_evdw>
-43.8770027160645

> <r_i_glide_ecoul>
-10.6678838729858

> <r_i_glide_erotb>
0.316190261425573

> <r_i_glide_esite>
-0.111020234624448

> <r_i_glide_emodel>
-83.4543817192793

> <r_i_glide_energy>
-54.5448865890503

> <r_i_glide_einternal>
4.80482196807861

> <i_i_glide_confnum>
79

> <i_i_glide_posenum>
79

> <r_i_glide_eff_state_penalty>
0.901575

$$$$
