/home/yujie/leadopt/data/result/selection/CDK9/lig_4.sdf:1
                    3D
 Schrodinger Suite 2020-3.
 69 74  0  0  1  0            999 V2000
  -41.0092  -36.4590    0.1387 C   0  0  0  0  0  0
  -40.3920  -37.0935   -0.9803 O   0  0  0  0  0  0
  -40.1178  -36.3685   -2.1298 C   0  0  0  0  0  0
  -40.4332  -35.0154   -2.2671 C   0  0  0  0  0  0
  -40.2908  -34.3390   -3.4862 C   0  0  0  0  0  0
  -39.6250  -35.0007   -4.5235 C   0  0  0  0  0  0
  -39.2288  -36.3246   -4.3859 C   0  0  0  0  0  0
  -39.5216  -37.0260   -3.2173 C   0  0  0  0  0  0
  -39.2604  -38.4719   -3.1767 C   0  0  0  0  0  0
  -37.9782  -39.0160   -3.2970 C   0  0  0  0  0  0
  -37.8033  -40.4002   -3.2595 C   0  0  0  0  0  0
  -38.8189  -41.2956   -3.1390 N   0  0  0  0  0  0
  -40.0495  -40.7874   -3.0572 C   0  0  0  0  0  0
  -40.3031  -39.3970   -3.0565 C   0  0  0  0  0  0
  -41.6733  -39.3090   -2.9303 N   0  0  0  0  0  0
  -42.1656  -40.5974   -2.8800 C   0  0  0  0  0  0
  -41.2103  -41.4936   -2.9669 N   0  0  0  0  0  0
  -43.6179  -40.9449   -2.8058 C   0  0  0  0  0  0
  -44.0401  -42.1351   -3.3992 C   0  0  0  0  0  0
  -45.3834  -42.4734   -3.4297 C   0  0  0  0  0  0
  -46.3228  -41.6577   -2.7997 C   0  0  0  0  0  0
  -45.9069  -40.4772   -2.1743 C   0  0  0  0  0  0
  -44.5592  -40.1160   -2.1868 C   0  0  0  0  0  0
  -47.7978  -42.0520   -2.8194 C   0  0  0  0  0  0
  -48.2363  -43.1231   -1.7853 N   0  3  0  0  0  0
  -47.9863  -42.6485   -0.3391 C   0  0  0  0  0  0
  -48.4459  -43.7449    0.6416 C   0  0  0  0  0  0
  -47.8166  -44.9895    0.3533 O   0  0  0  0  0  0
  -48.0365  -45.4910   -0.9629 C   0  0  0  0  0  0
  -47.5438  -44.4842   -2.0216 C   0  0  0  0  0  0
  -40.8340  -32.9456   -3.7382 C   0  0  0  0  0  0
  -40.3331  -32.2905   -4.6530 O   0  0  0  0  0  0
  -41.9054  -32.4573   -3.0570 N   0  0  0  0  0  0
  -42.6387  -33.0719   -1.9368 C   0  0  0  0  0  0
  -43.7882  -32.1165   -1.6850 C   0  0  0  0  0  0
  -43.2803  -30.7761   -2.2012 C   0  0  0  0  0  0
  -42.4376  -31.1328   -3.4063 C   0  0  0  0  0  0
  -42.2517  -38.4825   -2.8869 H   0  0  0  0  0  0
  -41.1405  -37.1834    0.9411 H   0  0  0  0  0  0
  -40.3974  -35.6469    0.5352 H   0  0  0  0  0  0
  -41.9972  -36.0716   -0.1137 H   0  0  0  0  0  0
  -40.8082  -34.5135   -1.4027 H   0  0  0  0  0  0
  -39.4536  -34.5119   -5.4715 H   0  0  0  0  0  0
  -38.7581  -36.8260   -5.2183 H   0  0  0  0  0  0
  -37.1222  -38.3665   -3.4041 H   0  0  0  0  0  0
  -36.8151  -40.8234   -3.3325 H   0  0  0  0  0  0
  -43.3171  -42.7940   -3.8547 H   0  0  0  0  0  0
  -45.6849  -43.3874   -3.9213 H   0  0  0  0  0  0
  -46.6237  -39.8358   -1.6806 H   0  0  0  0  0  0
  -44.2516  -39.1996   -1.7035 H   0  0  0  0  0  0
  -48.4404  -41.1918   -2.6217 H   0  0  0  0  0  0
  -48.0763  -42.4713   -3.7881 H   0  0  0  0  0  0
  -46.9163  -42.4461   -0.2580 H   0  0  0  0  0  0
  -48.5344  -41.7142   -0.2070 H   0  0  0  0  0  0
  -49.5316  -43.8571    0.6286 H   0  0  0  0  0  0
  -48.1749  -43.4636    1.6597 H   0  0  0  0  0  0
  -49.0898  -45.7281   -1.1044 H   0  0  0  0  0  0
  -47.4870  -46.4284   -1.0683 H   0  0  0  0  0  0
  -47.7599  -44.8077   -3.0406 H   0  0  0  0  0  0
  -46.4764  -44.2947   -1.9147 H   0  0  0  0  0  0
  -42.0468  -33.0912   -1.0217 H   0  0  0  0  0  0
  -43.0155  -34.0677   -2.1799 H   0  0  0  0  0  0
  -44.0875  -32.0944   -0.6372 H   0  0  0  0  0  0
  -44.6283  -32.4985   -2.2558 H   0  0  0  0  0  0
  -44.0295  -30.0353   -2.4513 H   0  0  0  0  0  0
  -42.6594  -30.2933   -1.4550 H   0  0  0  0  0  0
  -43.0705  -31.2064   -4.2929 H   0  0  0  0  0  0
  -41.6528  -30.3855   -3.5433 H   0  0  0  0  0  0
  -49.2309  -43.2720   -1.8825 H   0  0  0  0  0  0
  1  2  1  0  0  0
  1 39  1  0  0  0
  1 40  1  0  0  0
  1 41  1  0  0  0
  2  3  1  0  0  0
  3  8  1  0  0  0
  3  4  2  0  0  0
  4  5  1  0  0  0
  4 42  1  0  0  0
  5  6  2  0  0  0
  5 31  1  0  0  0
  6  7  1  0  0  0
  6 43  1  0  0  0
  7  8  2  0  0  0
  7 44  1  0  0  0
  8  9  1  0  0  0
  9 14  1  0  0  0
  9 10  2  0  0  0
 10 11  1  0  0  0
 10 45  1  0  0  0
 11 12  2  0  0  0
 11 46  1  0  0  0
 12 13  1  0  0  0
 13 17  1  0  0  0
 13 14  2  0  0  0
 14 15  1  0  0  0
 15 38  1  0  0  0
 15 16  1  0  0  0
 16 17  2  0  0  0
 16 18  1  0  0  0
 18 23  1  0  0  0
 18 19  2  0  0  0
 19 20  1  0  0  0
 19 47  1  0  0  0
 20 21  2  0  0  0
 20 48  1  0  0  0
 21 22  1  0  0  0
 21 24  1  0  0  0
 22 23  2  0  0  0
 22 49  1  0  0  0
 23 50  1  0  0  0
 24 25  1  0  0  0
 24 51  1  0  0  0
 24 52  1  0  0  0
 25 30  1  0  0  0
 25 26  1  0  0  0
 25 69  1  0  0  0
 26 27  1  0  0  0
 26 53  1  0  0  0
 26 54  1  0  0  0
 27 28  1  0  0  0
 27 55  1  0  0  0
 27 56  1  0  0  0
 28 29  1  0  0  0
 29 30  1  0  0  0
 29 57  1  0  0  0
 29 58  1  0  0  0
 30 59  1  0  0  0
 30 60  1  0  0  0
 31 32  2  0  0  0
 31 33  1  0  0  0
 33 37  1  0  0  0
 33 34  1  0  0  0
 34 35  1  0  0  0
 34 61  1  0  0  0
 34 62  1  0  0  0
 35 36  1  0  0  0
 35 63  1  0  0  0
 35 64  1  0  0  0
 36 37  1  0  0  0
 36 65  1  0  0  0
 36 66  1  0  0  0
 37 67  1  0  0  0
 37 68  1  0  0  0
M  CHG  1  25   1
M  END
> <s_m_source_file>
/home/yujie/leadopt/data/result/selection/CDK9/lig_4.sdf

> <i_m_source_file_index>
1

> <i_lp_mmshare_version>
51139

> <i_f3d_flags>
0

> <s_epik_input>
W0NIMl0xW0NIMl1bQ0gyXVtDSDJdTjFDKD1PKWMoW2NIXWMyT1tDSDNdKVtjSF1bY0hdYzItYyhbY0hdW2NIXW4zKWMoYzM0KVtuSF1jKG40KS1jNVtjSF1bY0hdYyhbY0hdW2NIXTUpW0NIMl1ONltDSDJdW0NIMl1PW0NIMl1bQ0gyXTY=

> <s_epik_cmdline>
J2VwaWtfcHl0aG9uJywgJy1waHQnLCAnMi4wJywgJy1waCcsICc3LjAnLCAnLXRuJywgJzgnLCAnLW1hJywgJzIwMCcsICctaW1hZScsICc8aW5maWxlLm1hZT4nLCAnLW9tYWUnLCAnPG91dGZpbGUubWFlPic=

> <r_lp_tautomer_probability>
0.641916

> <r_epik_Ionization_Penalty>
  0.5833

> <r_epik_Ionization_Penalty_Charging>
  0.5711

> <r_epik_Ionization_Penalty_Neutral>
  0.0123

> <r_epik_State_Penalty>
  0.8371

> <r_epik_Charging_Adjusted_Penalty>
1.40814

> <i_epik_Tot_Q>
1

> <i_epik_Tot_abs_Q>
1

> <s_lp_Force_Field>
OPLS3e

> <r_lp_Energy>
63.5932

> <b_lp_Chiralities_Consistent>
1

> <s_lp_Variant>
/home/yujie/leadopt/data/result/selection/CDK9/lig_4.sdf:1-2

> <s_i_glide_gridfile>
glide-grid_CDK9

> <i_i_glide_lignum>
2

> <i_i_glide_rotatable_bonds>
7

> <r_i_docking_score>
-6.89668940092004

> <r_i_glide_ligand_efficiency>
-0.186397010835677

> <r_i_glide_ligand_efficiency_sa>
-0.62111619184053

> <r_i_glide_ligand_efficiency_ln>
-1.49573024972049

> <r_i_glide_gscore>
-7.73375540092004

> <r_i_glide_lipo>
-2.52927203221294

> <r_i_glide_hbond>
-0.313620882704029

> <r_i_glide_metal>
-0

> <r_i_glide_rewards>
-1.33495923814848

> <r_i_glide_evdw>
-46.9730186462402

> <r_i_glide_ecoul>
-10.2446222305298

> <r_i_glide_erotb>
0.492532175239812

> <r_i_glide_esite>
-0.16309115620293

> <r_i_glide_emodel>
-80.4386361376539

> <r_i_glide_energy>
-57.21764087677

> <r_i_glide_einternal>
10.7718620300293

> <i_i_glide_confnum>
175

> <i_i_glide_posenum>
375

> <r_i_glide_eff_state_penalty>
0.837066

$$$$
