/home/yujie/leadopt/data/result/selection/CDK9/lig_15.sdf:1
                    3D
 Schrodinger Suite 2020-3.
 48 51  0  0  1  0            999 V2000
  -47.7577  -42.1146   -1.4392 C   0  0  0  0  0  0
  -46.3902  -41.4890   -1.7964 N   0  3  2  0  0  0
  -46.0469  -41.7719   -3.2718 C   0  0  0  0  0  0
  -44.7063  -41.1042   -3.6278 C   0  0  0  0  0  0
  -43.5578  -41.4067   -2.6354 C   0  0  2  0  0  0
  -43.9685  -41.3660   -1.1498 C   0  0  0  0  0  0
  -45.3027  -42.0703   -0.8744 C   0  0  0  0  0  0
  -42.2302  -40.7207   -2.9114 C   0  0  0  0  0  0
  -41.8415  -39.3910   -3.0567 C   0  0  0  0  0  0
  -40.4056  -39.3582   -3.1969 C   0  0  0  0  0  0
  -39.3924  -38.3772   -3.3405 C   0  0  0  0  0  0
  -38.0701  -38.8318   -3.4565 C   0  0  0  0  0  0
  -37.7938  -40.1967   -3.4310 C   0  0  0  0  0  0
  -38.7341  -41.1595   -3.2834 N   0  0  0  0  0  0
  -39.9857  -40.7148   -3.1755 C   0  0  0  0  0  0
  -41.1010  -41.4928   -2.9990 N   0  0  0  0  0  0
  -39.6679  -36.9183   -3.3886 C   0  0  0  0  0  0
  -39.2273  -36.2006   -4.5069 C   0  0  0  0  0  0
  -39.4110  -34.8264   -4.5891 C   0  0  0  0  0  0
  -40.0374  -34.1463   -3.5521 C   0  0  0  0  0  0
  -40.4828  -34.8438   -2.4312 C   0  0  0  0  0  0
  -40.2983  -36.2354   -2.3294 C   0  0  0  0  0  0
  -40.6790  -36.9736   -1.2215 O   0  0  0  0  0  0
  -41.1746  -36.3090   -0.0629 C   0  0  0  0  0  0
  -40.2033  -32.8074   -3.6375 F   0  0  0  0  0  0
  -41.1455  -42.4999   -2.8968 H   0  0  0  0  0  0
  -47.6971  -43.1932   -1.5976 H   0  0  0  0  0  0
  -47.9714  -41.8856   -0.3926 H   0  0  0  0  0  0
  -48.5077  -41.6588   -2.0869 H   0  0  0  0  0  0
  -46.8656  -41.3875   -3.8826 H   0  0  0  0  0  0
  -45.9998  -42.8577   -3.3848 H   0  0  0  0  0  0
  -44.4470  -41.4939   -4.6116 H   0  0  0  0  0  0
  -44.8839  -40.0284   -3.6767 H   0  0  0  0  0  0
  -43.4450  -42.4851   -2.7825 H   0  0  0  0  0  0
  -44.0637  -40.3325   -0.8125 H   0  0  0  0  0  0
  -43.2201  -41.8791   -0.5424 H   0  0  0  0  0  0
  -45.6294  -41.8935    0.1432 H   0  0  0  0  0  0
  -45.2499  -43.1455   -1.0568 H   0  0  0  0  0  0
  -42.5091  -38.5429   -3.0186 H   0  0  0  0  0  0
  -37.2575  -38.1270   -3.5665 H   0  0  0  0  0  0
  -36.7761  -40.5519   -3.5139 H   0  0  0  0  0  0
  -38.7324  -36.7132   -5.3207 H   0  0  0  0  0  0
  -39.0632  -34.2930   -5.4573 H   0  0  0  0  0  0
  -40.9588  -34.2788   -1.6437 H   0  0  0  0  0  0
  -41.3658  -37.0458    0.7190 H   0  0  0  0  0  0
  -40.4498  -35.5943    0.3293 H   0  0  0  0  0  0
  -42.1138  -35.7916   -0.2619 H   0  0  0  0  0  0
  -46.4321  -40.4892   -1.6413 H   0  0  0  0  0  0
  1  2  1  0  0  0
  1 27  1  0  0  0
  1 28  1  0  0  0
  1 29  1  0  0  0
  2  7  1  0  0  0
  2  3  1  0  0  0
  2 48  1  0  0  0
  3  4  1  0  0  0
  3 30  1  0  0  0
  3 31  1  0  0  0
  4  5  1  0  0  0
  4 32  1  0  0  0
  4 33  1  0  0  0
  5  6  1  0  0  0
  5  8  1  0  0  0
  5 34  1  0  0  0
  6  7  1  0  0  0
  6 35  1  0  0  0
  6 36  1  0  0  0
  7 37  1  0  0  0
  7 38  1  0  0  0
  8 16  1  0  0  0
  8  9  2  0  0  0
  9 10  1  0  0  0
  9 39  1  0  0  0
 10 15  2  0  0  0
 10 11  1  0  0  0
 11 12  2  0  0  0
 11 17  1  0  0  0
 12 13  1  0  0  0
 12 40  1  0  0  0
 13 14  2  0  0  0
 13 41  1  0  0  0
 14 15  1  0  0  0
 15 16  1  0  0  0
 16 26  1  0  0  0
 17 22  1  0  0  0
 17 18  2  0  0  0
 18 19  1  0  0  0
 18 42  1  0  0  0
 19 20  2  0  0  0
 19 43  1  0  0  0
 20 21  1  0  0  0
 20 25  1  0  0  0
 21 22  2  0  0  0
 21 44  1  0  0  0
 22 23  1  0  0  0
 23 24  1  0  0  0
 24 45  1  0  0  0
 24 46  1  0  0  0
 24 47  1  0  0  0
M  CHG  1   2   1
M  END
> <s_m_source_file>
/home/yujie/leadopt/data/result/selection/CDK9/lig_15.sdf

> <i_m_source_file_index>
1

> <i_lp_mmshare_version>
51139

> <i_f3d_flags>
0

> <s_epik_input>
W0NIM11OMVtDSDJdW0NIMl1bQ0hdKFtDSDJdW0NIMl0xKWMoW2NIXTIpW25IXWMoYzIzKW5bY0hdW2NIXWMzLWM0W2NIXVtjSF1jKEYpW2NIXWM0T1tDSDNd

> <s_epik_cmdline>
J2VwaWtfcHl0aG9uJywgJy1waHQnLCAnMi4wJywgJy1waCcsICc3LjAnLCAnLXRuJywgJzgnLCAnLW1hJywgJzIwMCcsICctaW1hZScsICc8aW5maWxlLm1hZT4nLCAnLW9tYWUnLCAnPG91dGZpbGUubWFlPic=

> <r_lp_tautomer_probability>
1

> <r_epik_Ionization_Penalty>
  0.0037

> <r_epik_Ionization_Penalty_Charging>
  0.0022

> <r_epik_Ionization_Penalty_Neutral>
  0.0015

> <r_epik_State_Penalty>
 -0.0000

> <r_epik_Charging_Adjusted_Penalty>
0.00215996

> <i_epik_Tot_Q>
1

> <i_epik_Tot_abs_Q>
1

> <s_lp_Force_Field>
OPLS3e

> <r_lp_Energy>
44.933

> <b_lp_Chiralities_Consistent>
1

> <s_lp_Variant>
/home/yujie/leadopt/data/result/selection/CDK9/lig_15.sdf:1-1

> <s_i_glide_gridfile>
glide-grid_CDK9

> <i_i_glide_lignum>
1

> <i_i_glide_rotatable_bonds>
3

> <r_i_docking_score>
-8.50488115325796

> <r_i_glide_ligand_efficiency>
-0.340195246130319

> <r_i_glide_ligand_efficiency_sa>
-0.994736933073432

> <r_i_glide_ligand_efficiency_ln>
-2.0159117040435

> <r_i_glide_gscore>
-8.50488115325796

> <r_i_glide_lipo>
-3.01161808264375

> <r_i_glide_hbond>
-0.352620348755655

> <r_i_glide_metal>
-0

> <r_i_glide_rewards>
-2.27271991580517

> <r_i_glide_evdw>
-40.6008262634277

> <r_i_glide_ecoul>
-6.10892343521118

> <r_i_glide_erotb>
0.228783346525236

> <r_i_glide_esite>
-0.150326324125562

> <r_i_glide_emodel>
-75.0960732243528

> <r_i_glide_energy>
-46.7097496986389

> <r_i_glide_einternal>
0.829631090164185

> <i_i_glide_confnum>
4

> <i_i_glide_posenum>
373

> <r_i_glide_eff_state_penalty>
-0

$$$$
