/home/yujie/leadopt/data/result/selection/CDK9/lig_22.sdf:1
                    3D
 Schrodinger Suite 2020-3.
 61 64  0  0  1  0            999 V2000
  -37.8764  -34.2238   -4.6570 C   0  0  0  0  0  0
  -38.8290  -34.9750   -3.8463 N   0  0  0  0  0  0
  -38.7718  -36.3426   -3.7536 C   0  0  0  0  0  0
  -39.5808  -37.1243   -3.0028 C   0  0  0  0  0  0
  -40.5196  -36.3959   -2.1315 C   0  0  0  0  0  0
  -40.5979  -35.0396   -2.2582 C   0  0  0  0  0  0
  -39.8414  -34.2707   -3.2384 C   0  0  0  0  0  0
  -40.1256  -33.1011   -3.5044 O   0  0  0  0  0  0
  -41.1571  -37.0946   -1.1486 O   0  0  0  0  0  0
  -41.9229  -36.4038   -0.1621 C   0  0  0  0  0  0
  -39.4932  -38.6084   -3.1055 C   0  0  0  0  0  0
  -38.2621  -39.2376   -3.3554 C   0  0  0  0  0  0
  -38.1825  -40.6260   -3.4412 C   0  0  0  0  0  0
  -39.2324  -41.4709   -3.2902 N   0  0  0  0  0  0
  -40.4003  -40.8669   -3.0716 C   0  0  0  0  0  0
  -40.6180  -39.4625   -2.9891 C   0  0  0  0  0  0
  -42.0320  -39.3061   -2.8114 C   0  0  0  0  0  0
  -42.5981  -40.5619   -2.6572 C   0  0  0  0  0  0
  -41.6046  -41.4933   -2.8509 N   0  0  0  0  0  0
  -44.0085  -40.9808   -2.2967 C   0  0  1  0  0  0
  -44.7515  -39.8658   -1.5335 C   0  0  0  0  0  0
  -46.1220  -40.3483   -1.0566 C   0  0  0  0  0  0
  -46.9543  -40.7774   -2.2852 N   0  3  1  0  0  0
  -46.2555  -41.9080   -3.0824 C   0  0  0  0  0  0
  -44.8499  -41.4339   -3.5106 C   0  0  0  0  0  0
  -48.3968  -41.1703   -1.8547 C   0  0  0  0  0  0
  -49.4404  -40.4928   -2.7727 C   0  0  0  0  0  0
  -49.0573  -39.8045   -3.7250 O   0  0  0  0  0  0
  -50.7585  -40.6621   -2.4909 N   0  0  0  0  0  0
  -51.8144  -40.0028   -3.2660 C   0  0  0  0  0  0
  -51.2824  -41.5277   -1.4290 C   0  0  0  0  0  0
  -41.7645  -42.4919   -2.7709 H   0  0  0  0  0  0
  -37.6295  -34.8071   -5.5368 H   0  0  0  0  0  0
  -38.2658  -33.2732   -5.0114 H   0  0  0  0  0  0
  -36.9597  -34.0432   -4.0948 H   0  0  0  0  0  0
  -38.0765  -36.7506   -4.4742 H   0  0  0  0  0  0
  -41.2292  -34.4488   -1.6129 H   0  0  0  0  0  0
  -42.3292  -37.1281    0.5430 H   0  0  0  0  0  0
  -41.3129  -35.7010    0.4090 H   0  0  0  0  0  0
  -42.7666  -35.8711   -0.6032 H   0  0  0  0  0  0
  -37.3560  -38.6578   -3.4571 H   0  0  0  0  0  0
  -37.2299  -41.0934   -3.6283 H   0  0  0  0  0  0
  -42.5737  -38.3762   -2.7294 H   0  0  0  0  0  0
  -43.9476  -41.8328   -1.6139 H   0  0  0  0  0  0
  -44.8895  -38.9822   -2.1589 H   0  0  0  0  0  0
  -44.1828  -39.5767   -0.6484 H   0  0  0  0  0  0
  -46.6697  -39.5484   -0.5538 H   0  0  0  0  0  0
  -46.0345  -41.2133   -0.3944 H   0  0  0  0  0  0
  -46.2084  -42.7839   -2.4307 H   0  0  0  0  0  0
  -46.8898  -42.1326   -3.9416 H   0  0  0  0  0  0
  -44.3601  -42.2659   -4.0189 H   0  0  0  0  0  0
  -44.9704  -40.6127   -4.2163 H   0  0  0  0  0  0
  -48.5407  -40.8143   -0.8314 H   0  0  0  0  0  0
  -48.4650  -42.2593   -1.8698 H   0  0  0  0  0  0
  -51.4318  -39.2459   -3.9500 H   0  0  0  0  0  0
  -52.5165  -39.5018   -2.5984 H   0  0  0  0  0  0
  -52.3707  -40.7360   -3.8500 H   0  0  0  0  0  0
  -50.5170  -42.0358   -0.8423 H   0  0  0  0  0  0
  -51.8880  -40.9431   -0.7341 H   0  0  0  0  0  0
  -51.9255  -42.2979   -1.8586 H   0  0  0  0  0  0
  -47.0388  -39.9636   -2.8838 H   0  0  0  0  0  0
  1  2  1  0  0  0
  1 33  1  0  0  0
  1 34  1  0  0  0
  1 35  1  0  0  0
  2  7  1  0  0  0
  2  3  1  0  0  0
  3  4  2  0  0  0
  3 36  1  0  0  0
  4  5  1  0  0  0
  4 11  1  0  0  0
  5  6  2  0  0  0
  5  9  1  0  0  0
  6  7  1  0  0  0
  6 37  1  0  0  0
  7  8  2  0  0  0
  9 10  1  0  0  0
 10 38  1  0  0  0
 10 39  1  0  0  0
 10 40  1  0  0  0
 11 16  1  0  0  0
 11 12  2  0  0  0
 12 13  1  0  0  0
 12 41  1  0  0  0
 13 14  2  0  0  0
 13 42  1  0  0  0
 14 15  1  0  0  0
 15 19  1  0  0  0
 15 16  2  0  0  0
 16 17  1  0  0  0
 17 18  2  0  0  0
 17 43  1  0  0  0
 18 19  1  0  0  0
 18 20  1  0  0  0
 19 32  1  0  0  0
 20 25  1  0  0  0
 20 21  1  0  0  0
 20 44  1  0  0  0
 21 22  1  0  0  0
 21 45  1  0  0  0
 21 46  1  0  0  0
 22 23  1  0  0  0
 22 47  1  0  0  0
 22 48  1  0  0  0
 23 24  1  0  0  0
 23 26  1  0  0  0
 23 61  1  0  0  0
 24 25  1  0  0  0
 24 49  1  0  0  0
 24 50  1  0  0  0
 25 51  1  0  0  0
 25 52  1  0  0  0
 26 27  1  0  0  0
 26 53  1  0  0  0
 26 54  1  0  0  0
 27 28  2  0  0  0
 27 29  1  0  0  0
 29 30  1  0  0  0
 29 31  1  0  0  0
 30 55  1  0  0  0
 30 56  1  0  0  0
 30 57  1  0  0  0
 31 58  1  0  0  0
 31 59  1  0  0  0
 31 60  1  0  0  0
M  CHG  1  23   1
M  END
> <s_m_source_file>
/home/yujie/leadopt/data/result/selection/CDK9/lig_22.sdf

> <i_m_source_file_index>
1

> <i_lp_mmshare_version>
51139

> <i_f3d_flags>
0

> <s_epik_input>
Tz1jMVtjSF1jKE9bQ0gzXSljKFtjSF1uMVtDSDNdKS1jKFtjSF1bY0hdbjIpYyhjMjMpW2NIXWMoW25IXTMpW0NIXTRbQ0gyXVtDSDJdTihbQ0gyXVtDSDJdNClbQ0gyXUMoPU8pTihbQ0gzXSlbQ0gzXQ==

> <s_epik_cmdline>
J2VwaWtfcHl0aG9uJywgJy1waHQnLCAnMi4wJywgJy1waCcsICc3LjAnLCAnLXRuJywgJzgnLCAnLW1hJywgJzIwMCcsICctaW1hZScsICc8aW5maWxlLm1hZT4nLCAnLW9tYWUnLCAnPG91dGZpbGUubWFlPic=

> <r_lp_tautomer_probability>
0.999998

> <r_epik_Ionization_Penalty>
  0.0792

> <r_epik_Ionization_Penalty_Charging>
  0.0781

> <r_epik_Ionization_Penalty_Neutral>
  0.0011

> <r_epik_State_Penalty>
  0.0690

> <r_epik_Charging_Adjusted_Penalty>
0.147046

> <i_epik_Tot_Q>
1

> <i_epik_Tot_abs_Q>
1

> <s_lp_Force_Field>
OPLS3e

> <r_lp_Energy>
58.7439

> <b_lp_Chiralities_Consistent>
1

> <s_lp_Variant>
/home/yujie/leadopt/data/result/selection/CDK9/lig_22.sdf:1-1

> <s_i_glide_gridfile>
glide-grid_CDK9

> <i_i_glide_lignum>
1

> <i_i_glide_rotatable_bonds>
6

> <r_i_docking_score>
-8.39250727580963

> <r_i_glide_ligand_efficiency>
-0.270726041155149

> <r_i_glide_ligand_efficiency_sa>
-0.85045354680982

> <r_i_glide_ligand_efficiency_ln>
-1.89276759015459

> <r_i_glide_gscore>
-8.46148947580963

> <r_i_glide_lipo>
-2.28490511769008

> <r_i_glide_hbond>
-0.643096402888948

> <r_i_glide_metal>
-0

> <r_i_glide_rewards>
-2.24427749535358

> <r_i_glide_evdw>
-42.7237930297852

> <r_i_glide_ecoul>
-9.2771463394165

> <r_i_glide_erotb>
0.308085537520521

> <r_i_glide_esite>
-0.0695343949958065

> <r_i_glide_emodel>
-78.7569539811929

> <r_i_glide_energy>
-52.0009393692017

> <r_i_glide_einternal>
5.70035982131958

> <i_i_glide_confnum>
30

> <i_i_glide_posenum>
71

> <r_i_glide_eff_state_penalty>
0.0689822

$$$$
