/home/yujie/leadopt/data/result/selection/CDK9/lig_19.sdf:1
                    3D
 Schrodinger Suite 2020-3.
 71 75  0  0  1  0            999 V2000
  -51.4057  -41.0211   -5.1007 C   0  0  0  0  0  0
  -50.3942  -41.7056   -4.2898 N   0  0  0  0  0  0
  -50.9684  -42.7569   -3.4423 C   0  0  0  0  0  0
  -49.0752  -41.3685   -4.3295 C   0  0  0  0  0  0
  -48.6661  -40.4528   -5.0539 O   0  0  0  0  0  0
  -48.0811  -42.1860   -3.4542 C   0  0  0  0  0  0
  -46.6841  -41.7126   -3.5410 N   0  0  2  0  0  0
  -46.4529  -40.5097   -2.7215 C   0  0  0  0  0  0
  -45.0113  -39.9713   -2.8570 C   0  0  0  0  0  0
  -43.9305  -41.0493   -2.6199 C   0  0  0  0  0  0
  -44.2919  -42.3672   -3.3459 C   0  0  0  0  0  0
  -45.7593  -42.7823   -3.1416 C   0  0  0  0  0  0
  -42.4983  -40.5833   -2.8197 C   0  0  0  0  0  0
  -41.9345  -39.3262   -2.9861 C   0  0  0  0  0  0
  -40.5115  -39.4886   -3.1031 C   0  0  0  0  0  0
  -39.3972  -38.6383   -3.2428 C   0  0  0  0  0  0
  -38.1363  -39.2350   -3.3680 C   0  0  0  0  0  0
  -38.0269  -40.6260   -3.3121 C   0  0  0  0  0  0
  -39.0726  -41.4759   -3.1427 N   0  0  0  0  0  0
  -40.2625  -40.8799   -3.0564 C   0  0  0  0  0  0
  -41.4702  -41.4936   -2.8530 N   0  0  0  0  0  0
  -39.5796  -37.1713   -3.2585 C   0  0  0  0  0  0
  -39.2575  -36.4549   -4.4127 C   0  0  0  0  0  0
  -39.5833  -35.1065   -4.5184 C   0  0  0  0  0  0
  -40.2109  -34.4399   -3.4590 C   0  0  0  0  0  0
  -40.3896  -35.1312   -2.2584 C   0  0  0  0  0  0
  -40.1345  -36.5002   -2.1551 C   0  0  0  0  0  0
  -40.4296  -37.2246   -1.0153 O   0  0  0  0  0  0
  -41.0551  -36.5935    0.1027 C   0  0  0  0  0  0
  -40.6720  -33.0121   -3.6492 C   0  0  0  0  0  0
  -40.0295  -32.2936   -4.4095 O   0  0  0  0  0  0
  -41.7992  -32.5475   -3.0566 N   0  0  0  0  0  0
  -42.6533  -33.2368   -2.0803 C   0  0  0  0  0  0
  -43.8813  -32.3573   -2.0214 C   0  0  0  0  0  0
  -43.3136  -30.9622   -2.2567 C   0  0  0  0  0  0
  -42.2575  -31.1773   -3.3240 C   0  0  0  0  0  0
  -41.6301  -42.4881   -2.7224 H   0  0  0  0  0  0
  -52.1182  -40.5014   -4.4591 H   0  0  0  0  0  0
  -51.9600  -41.7467   -5.6978 H   0  0  0  0  0  0
  -50.9816  -40.2940   -5.7931 H   0  0  0  0  0  0
  -51.4928  -43.4862   -4.0613 H   0  0  0  0  0  0
  -50.2404  -43.3063   -2.8477 H   0  0  0  0  0  0
  -51.6955  -42.3255   -2.7533 H   0  0  0  0  0  0
  -48.4090  -42.1807   -2.4122 H   0  0  0  0  0  0
  -48.1449  -43.2166   -3.8108 H   0  0  0  0  0  0
  -47.1412  -39.7252   -3.0359 H   0  0  0  0  0  0
  -46.6904  -40.7192   -1.6755 H   0  0  0  0  0  0
  -44.9287  -39.5443   -3.8569 H   0  0  0  0  0  0
  -44.9023  -39.1697   -2.1273 H   0  0  0  0  0  0
  -44.0761  -41.3142   -1.5701 H   0  0  0  0  0  0
  -43.6844  -43.1891   -2.9651 H   0  0  0  0  0  0
  -44.1318  -42.2805   -4.4215 H   0  0  0  0  0  0
  -45.9494  -43.0813   -2.1082 H   0  0  0  0  0  0
  -45.9474  -43.6667   -3.7546 H   0  0  0  0  0  0
  -42.4888  -38.3994   -2.9907 H   0  0  0  0  0  0
  -37.2507  -38.6260   -3.4865 H   0  0  0  0  0  0
  -37.0575  -41.0934   -3.3937 H   0  0  0  0  0  0
  -38.8158  -36.9609   -5.2594 H   0  0  0  0  0  0
  -39.3926  -34.6013   -5.4537 H   0  0  0  0  0  0
  -40.7559  -34.6140   -1.3929 H   0  0  0  0  0  0
  -41.2185  -37.3274    0.8915 H   0  0  0  0  0  0
  -40.4296  -35.8041    0.5226 H   0  0  0  0  0  0
  -42.0264  -36.1737   -0.1639 H   0  0  0  0  0  0
  -42.9127  -34.2548   -2.3762 H   0  0  0  0  0  0
  -42.1822  -33.2099   -1.0965 H   0  0  0  0  0  0
  -44.5312  -32.6936   -2.8300 H   0  0  0  0  0  0
  -44.4275  -32.4603   -1.0837 H   0  0  0  0  0  0
  -42.8332  -30.5892   -1.3499 H   0  0  0  0  0  0
  -44.0295  -30.2013   -2.5511 H   0  0  0  0  0  0
  -41.4610  -30.4418   -3.2033 H   0  0  0  0  0  0
  -42.7150  -31.1157   -4.3125 H   0  0  0  0  0  0
  1  2  1  0  0  0
  1 38  1  0  0  0
  1 39  1  0  0  0
  1 40  1  0  0  0
  2  3  1  0  0  0
  2  4  1  0  0  0
  3 41  1  0  0  0
  3 42  1  0  0  0
  3 43  1  0  0  0
  4  5  2  0  0  0
  4  6  1  0  0  0
  6  7  1  0  0  0
  6 44  1  0  0  0
  6 45  1  0  0  0
  7 12  1  0  0  0
  7  8  1  0  0  0
  8  9  1  0  0  0
  8 46  1  0  0  0
  8 47  1  0  0  0
  9 10  1  0  0  0
  9 48  1  0  0  0
  9 49  1  0  0  0
 10 11  1  0  0  0
 10 13  1  0  0  0
 10 50  1  0  0  0
 11 12  1  0  0  0
 11 51  1  0  0  0
 11 52  1  0  0  0
 12 53  1  0  0  0
 12 54  1  0  0  0
 13 21  1  0  0  0
 13 14  2  0  0  0
 14 15  1  0  0  0
 14 55  1  0  0  0
 15 20  2  0  0  0
 15 16  1  0  0  0
 16 17  2  0  0  0
 16 22  1  0  0  0
 17 18  1  0  0  0
 17 56  1  0  0  0
 18 19  2  0  0  0
 18 57  1  0  0  0
 19 20  1  0  0  0
 20 21  1  0  0  0
 21 37  1  0  0  0
 22 27  1  0  0  0
 22 23  2  0  0  0
 23 24  1  0  0  0
 23 58  1  0  0  0
 24 25  2  0  0  0
 24 59  1  0  0  0
 25 26  1  0  0  0
 25 30  1  0  0  0
 26 27  2  0  0  0
 26 60  1  0  0  0
 27 28  1  0  0  0
 28 29  1  0  0  0
 29 61  1  0  0  0
 29 62  1  0  0  0
 29 63  1  0  0  0
 30 31  2  0  0  0
 30 32  1  0  0  0
 32 36  1  0  0  0
 32 33  1  0  0  0
 33 34  1  0  0  0
 33 64  1  0  0  0
 33 65  1  0  0  0
 34 35  1  0  0  0
 34 66  1  0  0  0
 34 67  1  0  0  0
 35 36  1  0  0  0
 35 68  1  0  0  0
 35 69  1  0  0  0
 36 70  1  0  0  0
 36 71  1  0  0  0
M  END
> <s_m_source_file>
/home/yujie/leadopt/data/result/selection/CDK9/lig_19.sdf

> <i_m_source_file_index>
1

> <i_lp_mmshare_version>
51139

> <i_f3d_flags>
0

> <s_epik_input>
W0NIM11OKFtDSDNdKUMoPU8pW0NIMl1OMVtDSDJdW0NIMl1bQ0hdKFtDSDJdW0NIMl0xKWMoW2NIXTIpW25IXWMoYzIzKW5bY0hdW2NIXWMzLWM0W2NIXVtjSF1jKFtjSF1jNE9bQ0gzXSlDKD1PKU41W0NIMl1bQ0gyXVtDSDJdW0NIMl01

> <s_epik_cmdline>
J2VwaWtfcHl0aG9uJywgJy1waHQnLCAnMi4wJywgJy1waCcsICc3LjAnLCAnLXRuJywgJzgnLCAnLW1hJywgJzIwMCcsICctaW1hZScsICc8aW5maWxlLm1hZT4nLCAnLW9tYWUnLCAnPG91dGZpbGUubWFlPic=

> <r_lp_tautomer_probability>
0.999998

> <r_epik_Ionization_Penalty>
  1.2423

> <r_epik_Ionization_Penalty_Charging>
  0.0000

> <r_epik_Ionization_Penalty_Neutral>
  1.2423

> <r_epik_State_Penalty>
  1.3436

> <r_epik_Charging_Adjusted_Penalty>
1.34359

> <i_epik_Tot_Q>
0

> <i_epik_Tot_abs_Q>
0

> <s_lp_Force_Field>
OPLS3e

> <r_lp_Energy>
60.0934

> <b_lp_Chiralities_Consistent>
1

> <s_lp_Variant>
/home/yujie/leadopt/data/result/selection/CDK9/lig_19.sdf:1-2

> <s_i_glide_gridfile>
glide-grid_CDK9

> <i_i_glide_lignum>
2

> <i_i_glide_rotatable_bonds>
8

> <r_i_docking_score>
-7.92830744435984

> <r_i_glide_ligand_efficiency>
-0.220230762343329

> <r_i_glide_ligand_efficiency_sa>
-0.727185954357646

> <r_i_glide_ligand_efficiency_ln>
-1.72974248624581

> <r_i_glide_gscore>
-9.27189744435984

> <r_i_glide_lipo>
-2.93928157586124

> <r_i_glide_hbond>
-0.76

> <r_i_glide_metal>
-0

> <r_i_glide_rewards>
-1.55057871305691

> <r_i_glide_evdw>
-42.8349609375

> <r_i_glide_ecoul>
-13.6913566589355

> <r_i_glide_erotb>
0.356452408475493

> <r_i_glide_esite>
-0.183038018201856

> <r_i_glide_emodel>
-82.1761936989373

> <r_i_glide_energy>
-56.5263175964355

> <r_i_glide_einternal>
5.51625347137451

> <i_i_glide_confnum>
20

> <i_i_glide_posenum>
204

> <r_i_glide_eff_state_penalty>
1.34359

$$$$
