/home/yujie/leadopt/data/result/selection/CDK9/lig_29.sdf:1
                    3D
 Schrodinger Suite 2020-3.
 70 74  0  0  1  0            999 V2000
  -51.4611  -40.8300   -4.1240 C   0  0  0  0  0  0
  -50.4936  -40.8642   -3.0220 N   0  0  0  0  0  0
  -51.0698  -41.3674   -1.7699 C   0  0  0  0  0  0
  -49.1925  -40.5048   -3.1870 C   0  0  0  0  0  0
  -48.7886  -40.0338   -4.2570 O   0  0  0  0  0  0
  -48.2186  -40.6841   -1.9861 C   0  0  0  0  0  0
  -46.8022  -40.4719   -2.3445 N   0  0  2  0  0  0
  -46.0090  -40.1697   -1.1460 C   0  0  0  0  0  0
  -44.5630  -39.7973   -1.5136 C   0  0  0  0  0  0
  -43.8623  -40.9061   -2.3273 C   0  0  0  0  0  0
  -44.7650  -41.3373   -3.5037 C   0  0  0  0  0  0
  -46.2201  -41.6177   -3.0667 C   0  0  0  0  0  0
  -42.4433  -40.5406   -2.7180 C   0  0  0  0  0  0
  -41.8735  -39.3100   -2.9989 C   0  0  0  0  0  0
  -40.4608  -39.4847   -3.1516 C   0  0  0  0  0  0
  -39.3422  -38.6483   -3.3768 C   0  0  0  0  0  0
  -38.0942  -39.2733   -3.4566 C   0  0  0  0  0  0
  -37.9956  -40.6549   -3.3227 C   0  0  0  0  0  0
  -39.0471  -41.4934   -3.1241 N   0  0  0  0  0  0
  -40.2351  -40.8868   -3.0493 C   0  0  0  0  0  0
  -41.4510  -41.4914   -2.8092 N   0  0  0  0  0  0
  -39.4431  -37.1809   -3.5182 C   0  0  0  0  0  0
  -38.6753  -36.4511   -4.5173 C   0  0  0  0  0  0
  -38.7865  -35.1074   -4.6139 C   0  0  0  0  0  0
  -39.6317  -34.3117   -3.7291 C   0  0  0  0  0  0
  -39.6294  -33.0849   -3.8563 O   0  0  0  0  0  0
  -40.3609  -35.0383   -2.8022 N   0  0  0  0  0  0
  -40.2242  -36.4125   -2.7271 C   0  0  0  0  0  0
  -41.2191  -34.2966   -1.8565 C   0  0  0  0  0  0
  -42.7189  -34.2446   -2.2300 C   0  0  0  0  0  0
  -43.0691  -33.2783   -3.3855 C   0  0  0  0  0  0
  -44.4075  -33.5697   -4.0818 C   0  0  0  0  0  0
  -44.5927  -34.9655   -4.2566 O   0  0  0  0  0  0
  -44.7795  -35.6389   -3.0206 C   0  0  0  0  0  0
  -43.4644  -35.6053   -2.2269 C   0  0  0  0  0  0
  -41.6293  -42.4788   -2.6511 H   0  0  0  0  0  0
  -51.0287  -40.4905   -5.0680 H   0  0  0  0  0  0
  -52.2873  -40.1606   -3.8787 H   0  0  0  0  0  0
  -51.8723  -41.8263   -4.2962 H   0  0  0  0  0  0
  -50.4228  -41.2449   -0.9001 H   0  0  0  0  0  0
  -51.9993  -40.8395   -1.5454 H   0  0  0  0  0  0
  -51.3073  -42.4292   -1.8647 H   0  0  0  0  0  0
  -48.5255  -39.9558   -1.2323 H   0  0  0  0  0  0
  -48.3376  -41.6755   -1.5444 H   0  0  0  0  0  0
  -46.4590  -39.3243   -0.6222 H   0  0  0  0  0  0
  -46.0317  -41.0171   -0.4585 H   0  0  0  0  0  0
  -44.6122  -38.8596   -2.0702 H   0  0  0  0  0  0
  -44.0263  -39.6209   -0.5807 H   0  0  0  0  0  0
  -43.8541  -41.7646   -1.6508 H   0  0  0  0  0  0
  -44.3751  -42.2451   -3.9655 H   0  0  0  0  0  0
  -44.8297  -40.5528   -4.2548 H   0  0  0  0  0  0
  -46.2759  -42.5149   -2.4472 H   0  0  0  0  0  0
  -46.8158  -41.8239   -3.9568 H   0  0  0  0  0  0
  -42.4227  -38.3848   -3.0296 H   0  0  0  0  0  0
  -37.1964  -38.6897   -3.6045 H   0  0  0  0  0  0
  -37.0131  -41.0941   -3.3656 H   0  0  0  0  0  0
  -38.0291  -36.9858   -5.2002 H   0  0  0  0  0  0
  -38.2160  -34.5801   -5.3628 H   0  0  0  0  0  0
  -40.8161  -36.8269   -1.9215 H   0  0  0  0  0  0
  -41.1219  -34.7479   -0.8687 H   0  0  0  0  0  0
  -40.8647  -33.2725   -1.7379 H   0  0  0  0  0  0
  -43.2002  -33.7377   -1.3910 H   0  0  0  0  0  0
  -42.9461  -32.2311   -3.1039 H   0  0  0  0  0  0
  -42.3340  -33.4440   -4.1686 H   0  0  0  0  0  0
  -45.2289  -33.1667   -3.4933 H   0  0  0  0  0  0
  -44.4429  -33.0831   -5.0560 H   0  0  0  0  0  0
  -45.5905  -35.1907   -2.4439 H   0  0  0  0  0  0
  -45.0817  -36.6675   -3.2194 H   0  0  0  0  0  0
  -42.8477  -36.2901   -2.7979 H   0  0  0  0  0  0
  -43.5444  -36.0393   -1.2295 H   0  0  0  0  0  0
  1  2  1  0  0  0
  1 37  1  0  0  0
  1 38  1  0  0  0
  1 39  1  0  0  0
  2  3  1  0  0  0
  2  4  1  0  0  0
  3 40  1  0  0  0
  3 41  1  0  0  0
  3 42  1  0  0  0
  4  5  2  0  0  0
  4  6  1  0  0  0
  6  7  1  0  0  0
  6 43  1  0  0  0
  6 44  1  0  0  0
  7 12  1  0  0  0
  7  8  1  0  0  0
  8  9  1  0  0  0
  8 45  1  0  0  0
  8 46  1  0  0  0
  9 10  1  0  0  0
  9 47  1  0  0  0
  9 48  1  0  0  0
 10 11  1  0  0  0
 10 13  1  0  0  0
 10 49  1  0  0  0
 11 12  1  0  0  0
 11 50  1  0  0  0
 11 51  1  0  0  0
 12 52  1  0  0  0
 12 53  1  0  0  0
 13 21  1  0  0  0
 13 14  2  0  0  0
 14 15  1  0  0  0
 14 54  1  0  0  0
 15 20  2  0  0  0
 15 16  1  0  0  0
 16 17  2  0  0  0
 16 22  1  0  0  0
 17 18  1  0  0  0
 17 55  1  0  0  0
 18 19  2  0  0  0
 18 56  1  0  0  0
 19 20  1  0  0  0
 20 21  1  0  0  0
 21 36  1  0  0  0
 22 28  2  0  0  0
 22 23  1  0  0  0
 23 24  2  0  0  0
 23 57  1  0  0  0
 24 25  1  0  0  0
 24 58  1  0  0  0
 25 26  2  0  0  0
 25 27  1  0  0  0
 27 28  1  0  0  0
 27 29  1  0  0  0
 28 59  1  0  0  0
 29 30  1  0  0  0
 29 60  1  0  0  0
 29 61  1  0  0  0
 30 35  1  0  0  0
 30 31  1  0  0  0
 30 62  1  0  0  0
 31 32  1  0  0  0
 31 63  1  0  0  0
 31 64  1  0  0  0
 32 33  1  0  0  0
 32 65  1  0  0  0
 32 66  1  0  0  0
 33 34  1  0  0  0
 34 35  1  0  0  0
 34 67  1  0  0  0
 34 68  1  0  0  0
 35 69  1  0  0  0
 35 70  1  0  0  0
M  END
> <s_m_source_file>
/home/yujie/leadopt/data/result/selection/CDK9/lig_29.sdf

> <i_m_source_file_index>
1

> <i_lp_mmshare_version>
51139

> <i_f3d_flags>
0

> <s_epik_input>
W0NIM11OKFtDSDNdKUMoPU8pW0NIMl1OMVtDSDJdW0NIMl1bQ0hdKFtDSDJdW0NIMl0xKWMoW2NIXTIpW25IXWMoYzIzKW5bY0hdW2NIXWMzLWM0W2NIXVtjSF1jKD1PKW4oW2NIXTQpW0NIMl1bQ0hdNVtDSDJdW0NIMl1PW0NIMl1bQ0gyXTU=

> <s_epik_cmdline>
J2VwaWtfcHl0aG9uJywgJy1waHQnLCAnMi4wJywgJy1waCcsICc3LjAnLCAnLXRuJywgJzgnLCAnLW1hJywgJzIwMCcsICctaW1hZScsICc8aW5maWxlLm1hZT4nLCAnLW9tYWUnLCAnPG91dGZpbGUubWFlPic=

> <r_lp_tautomer_probability>
0.999998

> <r_epik_Ionization_Penalty>
  1.2409

> <r_epik_Ionization_Penalty_Charging>
  0.0000

> <r_epik_Ionization_Penalty_Neutral>
  1.2409

> <r_epik_State_Penalty>
  1.3083

> <r_epik_Charging_Adjusted_Penalty>
1.30828

> <i_epik_Tot_Q>
0

> <i_epik_Tot_abs_Q>
0

> <s_lp_Force_Field>
OPLS3e

> <r_lp_Energy>
56.991

> <b_lp_Chiralities_Consistent>
1

> <s_lp_Variant>
/home/yujie/leadopt/data/result/selection/CDK9/lig_29.sdf:1-2

> <s_i_glide_gridfile>
glide-grid_CDK9

> <i_i_glide_lignum>
2

> <i_i_glide_rotatable_bonds>
7

> <r_i_docking_score>
-7.95008702605321

> <r_i_glide_ligand_efficiency>
-0.22714534360152

> <r_i_glide_ligand_efficiency_sa>
-0.743007480090594

> <r_i_glide_ligand_efficiency_ln>
-1.74522054489374

> <r_i_glide_gscore>
-9.25836702605321

> <r_i_glide_lipo>
-2.98730286987251

> <r_i_glide_hbond>
-0.799424475226205

> <r_i_glide_metal>
-0

> <r_i_glide_rewards>
-1.7970103315101

> <r_i_glide_evdw>
-45.7657051086426

> <r_i_glide_ecoul>
-11.4501657485962

> <r_i_glide_erotb>
0.37301505800367

> <r_i_glide_esite>
-0.0418342897265013

> <r_i_glide_emodel>
-88.8865108672428

> <r_i_glide_energy>
-57.2158708572388

> <r_i_glide_einternal>
11.4271821975708

> <i_i_glide_confnum>
76

> <i_i_glide_posenum>
337

> <r_i_glide_eff_state_penalty>
1.30828

$$$$
