/home/yujie/leadopt/data/result/selection/CDK9/lig_14.sdf:1
                    3D
 Schrodinger Suite 2020-3.
 63 67  0  0  1  0            999 V2000
  -47.7048  -39.1906   -1.0888 C   0  0  0  0  0  0
  -47.2879  -39.8542   -2.4042 C   0  0  0  0  0  0
  -47.6891  -39.3498   -3.4557 O   0  0  0  0  0  0
  -46.6447  -41.0502   -2.3585 N   0  0  0  0  0  0
  -45.9118  -41.5197   -1.1769 C   0  0  0  0  0  0
  -44.4608  -40.9958   -1.2636 C   0  0  0  0  0  0
  -43.7976  -41.2946   -2.6305 C   0  0  0  0  0  0
  -44.7486  -41.2639   -3.8566 C   0  0  0  0  0  0
  -46.1999  -41.7204   -3.5824 C   0  0  0  0  0  0
  -42.4105  -40.7143   -2.8394 C   0  0  0  0  0  0
  -41.9128  -39.4251   -2.9725 C   0  0  0  0  0  0
  -40.4769  -39.5157   -3.0836 C   0  0  0  0  0  0
  -39.3937  -38.6198   -3.2026 C   0  0  0  0  0  0
  -38.1056  -39.1607   -3.3045 C   0  0  0  0  0  0
  -37.9338  -40.5433   -3.2521 C   0  0  0  0  0  0
  -38.9457  -41.4384   -3.1207 N   0  0  0  0  0  0
  -40.1624  -40.8946   -3.0566 C   0  0  0  0  0  0
  -41.3432  -41.5678   -2.9128 N   0  0  0  0  0  0
  -39.6141  -37.1624   -3.2319 C   0  0  0  0  0  0
  -39.3068  -36.4590   -4.3986 C   0  0  0  0  0  0
  -39.6295  -35.1120   -4.5119 C   0  0  0  0  0  0
  -40.2405  -34.4369   -3.4489 C   0  0  0  0  0  0
  -40.4136  -35.1184   -2.2417 C   0  0  0  0  0  0
  -40.1570  -36.4852   -2.1278 C   0  0  0  0  0  0
  -40.4296  -37.1977   -0.9742 O   0  0  0  0  0  0
  -41.0478  -36.5572    0.1419 C   0  0  0  0  0  0
  -40.6871  -33.0070   -3.6393 C   0  0  0  0  0  0
  -40.0295  -32.2936   -4.3901 O   0  0  0  0  0  0
  -41.8175  -32.5408   -3.0567 N   0  0  0  0  0  0
  -42.6692  -33.2252   -2.0732 C   0  0  0  0  0  0
  -43.8930  -32.3447   -2.0099 C   0  0  0  0  0  0
  -43.3193  -30.9519   -2.2525 C   0  0  0  0  0  0
  -42.2734  -31.1711   -3.3281 C   0  0  0  0  0  0
  -41.4619  -42.5697   -2.8066 H   0  0  0  0  0  0
  -48.2435  -39.8917   -0.4505 H   0  0  0  0  0  0
  -48.3583  -38.3391   -1.2762 H   0  0  0  0  0  0
  -46.8304  -38.8308   -0.5461 H   0  0  0  0  0  0
  -46.4298  -41.2963   -0.2567 H   0  0  0  0  0  0
  -45.9223  -42.6105   -1.2031 H   0  0  0  0  0  0
  -44.5015  -39.9181   -1.0978 H   0  0  0  0  0  0
  -43.8970  -41.4526   -0.4481 H   0  0  0  0  0  0
  -43.7210  -42.3805   -2.5249 H   0  0  0  0  0  0
  -44.3636  -41.8936   -4.6591 H   0  0  0  0  0  0
  -44.8295  -40.2352   -4.2099 H   0  0  0  0  0  0
  -46.2331  -42.7944   -3.3919 H   0  0  0  0  0  0
  -46.8955  -41.5755   -4.4106 H   0  0  0  0  0  0
  -42.5129  -38.5273   -2.9521 H   0  0  0  0  0  0
  -37.2464  -38.5125   -3.4056 H   0  0  0  0  0  0
  -36.9410  -40.9647   -3.3108 H   0  0  0  0  0  0
  -38.8746  -36.9731   -5.2453 H   0  0  0  0  0  0
  -39.4440  -34.6117   -5.4520 H   0  0  0  0  0  0
  -40.7694  -34.5933   -1.3771 H   0  0  0  0  0  0
  -41.1924  -37.2811    0.9425 H   0  0  0  0  0  0
  -40.4288  -35.7533    0.5432 H   0  0  0  0  0  0
  -42.0294  -36.1574   -0.1176 H   0  0  0  0  0  0
  -42.9287  -34.2446   -2.3625 H   0  0  0  0  0  0
  -42.1930  -33.1952   -1.0916 H   0  0  0  0  0  0
  -44.5489  -32.6933   -2.8088 H   0  0  0  0  0  0
  -44.4299  -32.4421   -1.0661 H   0  0  0  0  0  0
  -42.8298  -30.5827   -1.3504 H   0  0  0  0  0  0
  -44.0295  -30.1827   -2.5413 H   0  0  0  0  0  0
  -41.4744  -30.4349   -3.2179 H   0  0  0  0  0  0
  -42.7412  -31.1164   -4.3122 H   0  0  0  0  0  0
  1  2  1  0  0  0
  1 35  1  0  0  0
  1 36  1  0  0  0
  1 37  1  0  0  0
  2  3  2  0  0  0
  2  4  1  0  0  0
  4  9  1  0  0  0
  4  5  1  0  0  0
  5  6  1  0  0  0
  5 38  1  0  0  0
  5 39  1  0  0  0
  6  7  1  0  0  0
  6 40  1  0  0  0
  6 41  1  0  0  0
  7  8  1  0  0  0
  7 10  1  0  0  0
  7 42  1  0  0  0
  8  9  1  0  0  0
  8 43  1  0  0  0
  8 44  1  0  0  0
  9 45  1  0  0  0
  9 46  1  0  0  0
 10 18  1  0  0  0
 10 11  2  0  0  0
 11 12  1  0  0  0
 11 47  1  0  0  0
 12 17  2  0  0  0
 12 13  1  0  0  0
 13 14  2  0  0  0
 13 19  1  0  0  0
 14 15  1  0  0  0
 14 48  1  0  0  0
 15 16  2  0  0  0
 15 49  1  0  0  0
 16 17  1  0  0  0
 17 18  1  0  0  0
 18 34  1  0  0  0
 19 24  1  0  0  0
 19 20  2  0  0  0
 20 21  1  0  0  0
 20 50  1  0  0  0
 21 22  2  0  0  0
 21 51  1  0  0  0
 22 23  1  0  0  0
 22 27  1  0  0  0
 23 24  2  0  0  0
 23 52  1  0  0  0
 24 25  1  0  0  0
 25 26  1  0  0  0
 26 53  1  0  0  0
 26 54  1  0  0  0
 26 55  1  0  0  0
 27 28  2  0  0  0
 27 29  1  0  0  0
 29 33  1  0  0  0
 29 30  1  0  0  0
 30 31  1  0  0  0
 30 56  1  0  0  0
 30 57  1  0  0  0
 31 32  1  0  0  0
 31 58  1  0  0  0
 31 59  1  0  0  0
 32 33  1  0  0  0
 32 60  1  0  0  0
 32 61  1  0  0  0
 33 62  1  0  0  0
 33 63  1  0  0  0
M  END
> <s_m_source_file>
/home/yujie/leadopt/data/result/selection/CDK9/lig_14.sdf

> <i_m_source_file_index>
1

> <i_lp_mmshare_version>
51139

> <i_f3d_flags>
0

> <s_epik_input>
W0NIM11DKD1PKU4xW0NIMl1bQ0gyXVtDSF0oW0NIMl1bQ0gyXTEpYyhbY0hdMilbbkhdYyhjMjMpbltjSF1bY0hdYzMtYzRbY0hdW2NIXWMoW2NIXWM0T1tDSDNdKUMoPU8pTjVbQ0gyXVtDSDJdW0NIMl1bQ0gyXTU=

> <s_epik_cmdline>
J2VwaWtfcHl0aG9uJywgJy1waHQnLCAnMi4wJywgJy1waCcsICc3LjAnLCAnLXRuJywgJzgnLCAnLW1hJywgJzIwMCcsICctaW1hZScsICc8aW5maWxlLm1hZT4nLCAnLW9tYWUnLCAnPG91dGZpbGUubWFlPic=

> <r_lp_tautomer_probability>
0.999998

> <r_epik_Ionization_Penalty>
  0.0033

> <r_epik_Ionization_Penalty_Charging>
  0.0000

> <r_epik_Ionization_Penalty_Neutral>
  0.0033

> <r_epik_State_Penalty>
  0.0023

> <r_epik_Charging_Adjusted_Penalty>
0.00230214

> <i_epik_Tot_Q>
0

> <i_epik_Tot_abs_Q>
0

> <s_lp_Force_Field>
OPLS3e

> <r_lp_Energy>
46.5215

> <b_lp_Chiralities_Consistent>
1

> <s_lp_Variant>
/home/yujie/leadopt/data/result/selection/CDK9/lig_14.sdf:1-1

> <s_i_glide_gridfile>
glide-grid_CDK9

> <i_i_glide_lignum>
1

> <i_i_glide_rotatable_bonds>
6

> <r_i_docking_score>
-9.37882120772799

> <r_i_glide_ligand_efficiency>
-0.284206703264484

> <r_i_glide_ligand_efficiency_sa>
-0.911602756473296

> <r_i_glide_ligand_efficiency_ln>
-2.08580127566142

> <r_i_glide_gscore>
-9.38112334772799

> <r_i_glide_lipo>
-2.93373999815987

> <r_i_glide_hbond>
-0.731363744404222

> <r_i_glide_metal>
-0

> <r_i_glide_rewards>
-1.81379672629149

> <r_i_glide_evdw>
-40.8519325256348

> <r_i_glide_ecoul>
-12.7591819763184

> <r_i_glide_erotb>
0.281086068481141

> <r_i_glide_esite>
-0.226835024624051

> <r_i_glide_emodel>
-78.8740221554517

> <r_i_glide_energy>
-53.6111145019531

> <r_i_glide_einternal>
3.14438366889954

> <i_i_glide_confnum>
67

> <i_i_glide_posenum>
160

> <r_i_glide_eff_state_penalty>
0.00230214

$$$$
