/home/yujie/leadopt/data/result/selection/CDK9/lig_34.sdf:1
                    3D
 Schrodinger Suite 2020-3.
 60 63  0  0  1  0            999 V2000
  -42.0125  -34.7855   -0.8195 C   0  0  0  0  0  0
  -41.5450  -34.1662   -2.1576 C   0  0  0  0  0  0
  -42.7571  -33.7508   -3.0176 C   0  0  0  0  0  0
  -40.5717  -34.9803   -2.9378 N   0  0  0  0  0  0
  -40.4825  -36.3658   -2.8667 C   0  0  0  0  0  0
  -39.5751  -37.1502   -3.4964 C   0  0  0  0  0  0
  -38.6142  -36.4190   -4.3151 C   0  0  0  0  0  0
  -38.6719  -35.0742   -4.4094 C   0  0  0  0  0  0
  -39.6643  -34.2690   -3.7101 C   0  0  0  0  0  0
  -39.6318  -33.0438   -3.8579 O   0  0  0  0  0  0
  -39.5118  -38.6328   -3.3631 C   0  0  0  0  0  0
  -38.2724  -39.2852   -3.4559 C   0  0  0  0  0  0
  -38.1913  -40.6720   -3.3620 C   0  0  0  0  0  0
  -39.2529  -41.4906   -3.1667 N   0  0  0  0  0  0
  -40.4251  -40.8677   -3.0463 C   0  0  0  0  0  0
  -40.6406  -39.4613   -3.1231 C   0  0  0  0  0  0
  -42.0533  -39.2845   -2.9291 C   0  0  0  0  0  0
  -42.6228  -40.5220   -2.6625 C   0  0  0  0  0  0
  -41.6331  -41.4726   -2.7803 N   0  0  0  0  0  0
  -44.0478  -40.8721   -2.2760 C   0  0  1  0  0  0
  -44.8924  -41.4024   -3.4453 C   0  0  0  0  0  0
  -46.3790  -41.5041   -3.0450 C   0  0  0  0  0  0
  -46.5320  -42.4100   -1.7964 N   0  3  1  0  0  0
  -45.6157  -41.9447   -0.6380 C   0  0  0  0  0  0
  -44.1558  -41.8631   -1.1039 C   0  0  0  0  0  0
  -48.0125  -42.4005   -1.3117 C   0  0  0  0  0  0
  -48.3343  -43.6037   -0.4078 C   0  0  0  0  0  0
  -47.6293  -44.6119   -0.4216 O   0  0  0  0  0  0
  -49.4217  -43.4852    0.3678 N   0  0  0  0  0  0
  -49.8807  -44.5243    1.2813 C   0  0  0  0  0  0
  -41.7982  -42.4628   -2.6309 H   0  0  0  0  0  0
  -42.6239  -34.0731   -0.2660 H   0  0  0  0  0  0
  -42.6404  -35.6638   -0.9616 H   0  0  0  0  0  0
  -41.1742  -35.0496   -0.1760 H   0  0  0  0  0  0
  -41.0520  -33.2364   -1.8641 H   0  0  0  0  0  0
  -43.4718  -33.1800   -2.4244 H   0  0  0  0  0  0
  -42.4645  -33.1079   -3.8493 H   0  0  0  0  0  0
  -43.2915  -34.6172   -3.4046 H   0  0  0  0  0  0
  -41.2261  -36.7820   -2.2100 H   0  0  0  0  0  0
  -37.8558  -36.9491   -4.8711 H   0  0  0  0  0  0
  -37.9502  -34.5559   -5.0218 H   0  0  0  0  0  0
  -37.3599  -38.7264   -3.5959 H   0  0  0  0  0  0
  -37.2301  -41.1570   -3.4426 H   0  0  0  0  0  0
  -42.6074  -38.3581   -2.9340 H   0  0  0  0  0  0
  -44.5027  -39.9350   -1.9455 H   0  0  0  0  0  0
  -44.5288  -42.3683   -3.7992 H   0  0  0  0  0  0
  -44.8383  -40.6848   -4.2589 H   0  0  0  0  0  0
  -46.9747  -41.9573   -3.8389 H   0  0  0  0  0  0
  -46.8009  -40.5295   -2.7915 H   0  0  0  0  0  0
  -45.9811  -40.9831   -0.2711 H   0  0  0  0  0  0
  -45.7382  -42.6867    0.1423 H   0  0  0  0  0  0
  -43.5823  -41.4965   -0.2536 H   0  0  0  0  0  0
  -43.7859  -42.8567   -1.3662 H   0  0  0  0  0  0
  -48.6292  -42.4633   -2.2097 H   0  0  0  0  0  0
  -48.1975  -41.4407   -0.8231 H   0  0  0  0  0  0
  -49.9328  -42.6152    0.3665 H   0  0  0  0  0  0
  -50.7551  -44.1853    1.8351 H   0  0  0  0  0  0
  -49.0994  -44.7802    1.9975 H   0  0  0  0  0  0
  -50.1525  -45.4272    0.7313 H   0  0  0  0  0  0
  -46.2667  -43.3583   -2.0391 H   0  0  0  0  0  0
  1  2  1  0  0  0
  1 32  1  0  0  0
  1 33  1  0  0  0
  1 34  1  0  0  0
  2  3  1  0  0  0
  2  4  1  0  0  0
  2 35  1  0  0  0
  3 36  1  0  0  0
  3 37  1  0  0  0
  3 38  1  0  0  0
  4  9  1  0  0  0
  4  5  1  0  0  0
  5  6  2  0  0  0
  5 39  1  0  0  0
  6  7  1  0  0  0
  6 11  1  0  0  0
  7  8  2  0  0  0
  7 40  1  0  0  0
  8  9  1  0  0  0
  8 41  1  0  0  0
  9 10  2  0  0  0
 11 16  1  0  0  0
 11 12  2  0  0  0
 12 13  1  0  0  0
 12 42  1  0  0  0
 13 14  2  0  0  0
 13 43  1  0  0  0
 14 15  1  0  0  0
 15 19  1  0  0  0
 15 16  2  0  0  0
 16 17  1  0  0  0
 17 18  2  0  0  0
 17 44  1  0  0  0
 18 19  1  0  0  0
 18 20  1  0  0  0
 19 31  1  0  0  0
 20 25  1  0  0  0
 20 21  1  0  0  0
 20 45  1  0  0  0
 21 22  1  0  0  0
 21 46  1  0  0  0
 21 47  1  0  0  0
 22 23  1  0  0  0
 22 48  1  0  0  0
 22 49  1  0  0  0
 23 24  1  0  0  0
 23 26  1  0  0  0
 23 60  1  0  0  0
 24 25  1  0  0  0
 24 50  1  0  0  0
 24 51  1  0  0  0
 25 52  1  0  0  0
 25 53  1  0  0  0
 26 27  1  0  0  0
 26 54  1  0  0  0
 26 55  1  0  0  0
 27 28  2  0  0  0
 27 29  1  0  0  0
 29 30  1  0  0  0
 29 56  1  0  0  0
 30 57  1  0  0  0
 30 58  1  0  0  0
 30 59  1  0  0  0
M  CHG  1  23   1
M  END
> <s_m_source_file>
/home/yujie/leadopt/data/result/selection/CDK9/lig_34.sdf

> <i_m_source_file_index>
1

> <i_lp_mmshare_version>
51139

> <i_f3d_flags>
0

> <s_epik_input>
W0NIM11bQ0hdKFtDSDNdKW4xW2NIXWMoW2NIXVtjSF1jMT1PKS1jKFtjSF1bY0hdbjIpYyhjMjMpW2NIXWMoW25IXTMpW0NIXTRbQ0gyXVtDSDJdTihbQ0gyXVtDSDJdNClbQ0gyXUMoPU8pW05IXVtDSDNd

> <s_epik_cmdline>
J2VwaWtfcHl0aG9uJywgJy1waHQnLCAnMi4wJywgJy1waCcsICc3LjAnLCAnLXRuJywgJzgnLCAnLW1hJywgJzIwMCcsICctaW1hZScsICc8aW5maWxlLm1hZT4nLCAnLW9tYWUnLCAnPG91dGZpbGUubWFlPic=

> <r_lp_tautomer_probability>
0.999998

> <r_epik_Ionization_Penalty>
  0.0792

> <r_epik_Ionization_Penalty_Charging>
  0.0781

> <r_epik_Ionization_Penalty_Neutral>
  0.0011

> <r_epik_State_Penalty>
  0.0690

> <r_epik_Charging_Adjusted_Penalty>
0.147047

> <i_epik_Tot_Q>
1

> <i_epik_Tot_abs_Q>
1

> <s_lp_Force_Field>
OPLS3e

> <r_lp_Energy>
58.3075

> <b_lp_Chiralities_Consistent>
1

> <s_lp_Variant>
/home/yujie/leadopt/data/result/selection/CDK9/lig_34.sdf:1-1

> <s_i_glide_gridfile>
glide-grid_CDK9

> <i_i_glide_lignum>
1

> <i_i_glide_rotatable_bonds>
6

> <r_i_docking_score>
-9.26998852318427

> <r_i_glide_ligand_efficiency>
-0.308999617439476

> <r_i_glide_ligand_efficiency_sa>
-0.960133654546711

> <r_i_glide_ligand_efficiency_ln>
-2.10624239708226

> <r_i_glide_gscore>
-9.33897072318427

> <r_i_glide_lipo>
-2.91645467055484

> <r_i_glide_hbond>
-0.76

> <r_i_glide_metal>
-0

> <r_i_glide_rewards>
-2.19479847032958

> <r_i_glide_evdw>
-46.6599540710449

> <r_i_glide_ecoul>
-9.22284317016602

> <r_i_glide_erotb>
0.330224485657351

> <r_i_glide_esite>
-0.0815178888800474

> <r_i_glide_emodel>
-91.8083628409713

> <r_i_glide_energy>
-55.8827972412109

> <r_i_glide_einternal>
4.6967191696167

> <i_i_glide_confnum>
23

> <i_i_glide_posenum>
361

> <r_i_glide_eff_state_penalty>
0.0689822

$$$$
