/home/yujie/leadopt/data/result/selection/CDK9/lig_38.sdf:1
                    3D
 Schrodinger Suite 2020-3.
 69 73  0  0  1  0            999 V2000
  -42.0416  -34.6840   -0.8365 C   0  0  0  0  0  0
  -41.5390  -34.0751   -2.1662 C   0  0  0  0  0  0
  -42.7269  -33.7252   -3.0872 C   0  0  0  0  0  0
  -40.5022  -34.8713   -2.8843 N   0  0  0  0  0  0
  -40.3900  -36.2571   -2.8138 C   0  0  0  0  0  0
  -39.4453  -37.0281   -3.4102 C   0  0  0  0  0  0
  -38.4511  -36.2709   -4.1649 C   0  0  0  0  0  0
  -38.5260  -34.9255   -4.2515 C   0  0  0  0  0  0
  -39.5950  -34.1469   -3.6421 C   0  0  0  0  0  0
  -39.6313  -32.9326   -3.8579 O   0  0  0  0  0  0
  -39.3852  -38.5189   -3.3193 C   0  0  0  0  0  0
  -38.1538  -39.1835   -3.4569 C   0  0  0  0  0  0
  -38.0808  -40.5740   -3.3887 C   0  0  0  0  0  0
  -39.1433  -41.3926   -3.1931 N   0  0  0  0  0  0
  -40.3091  -40.7615   -3.0577 C   0  0  0  0  0  0
  -40.5188  -39.3506   -3.1039 C   0  0  0  0  0  0
  -41.9359  -39.1774   -2.9256 C   0  0  0  0  0  0
  -42.5132  -40.4200   -2.7110 C   0  0  0  0  0  0
  -41.5185  -41.3668   -2.8114 N   0  0  0  0  0  0
  -43.9588  -40.7931   -2.4409 C   0  0  0  0  0  0
  -44.8305  -40.8095   -3.7124 C   0  0  0  0  0  0
  -46.2925  -41.1567   -3.3943 C   0  0  0  0  0  0
  -46.3347  -42.4899   -2.7852 N   0  0  2  0  0  0
  -45.6764  -42.4747   -1.4690 C   0  0  0  0  0  0
  -44.1849  -42.0765   -1.5956 C   0  0  0  0  0  0
  -47.6662  -43.1229   -2.7437 C   0  0  0  0  0  0
  -48.3243  -43.2917   -4.1436 C   0  0  0  0  0  0
  -49.5021  -42.9383   -4.2441 O   0  0  0  0  0  0
  -47.5880  -43.6389   -5.2408 N   0  0  0  0  0  0
  -46.3644  -44.4617   -5.1526 C   0  0  0  0  0  0
  -46.7629  -45.9226   -5.4536 C   0  0  0  0  0  0
  -47.5065  -46.0691   -6.7961 C   0  0  0  0  0  0
  -48.6633  -45.0584   -6.9067 C   0  0  0  0  0  0
  -48.2006  -43.6206   -6.5844 C   0  0  0  0  0  0
  -41.6905  -42.3597   -2.6853 H   0  0  0  0  0  0
  -42.7112  -33.9855   -0.3328 H   0  0  0  0  0  0
  -42.6214  -35.5960   -0.9827 H   0  0  0  0  0  0
  -41.2263  -34.8899   -0.1433 H   0  0  0  0  0  0
  -41.1002  -33.1122   -1.8786 H   0  0  0  0  0  0
  -43.5178  -33.2182   -2.5329 H   0  0  0  0  0  0
  -42.4265  -33.0372   -3.8773 H   0  0  0  0  0  0
  -43.1719  -34.6156   -3.5336 H   0  0  0  0  0  0
  -41.1716  -36.6849   -2.2100 H   0  0  0  0  0  0
  -37.6329  -36.7751   -4.6573 H   0  0  0  0  0  0
  -37.7715  -34.3886   -4.8042 H   0  0  0  0  0  0
  -37.2356  -38.6325   -3.5989 H   0  0  0  0  0  0
  -37.1242  -41.0652   -3.4889 H   0  0  0  0  0  0
  -42.4976  -38.2562   -2.9296 H   0  0  0  0  0  0
  -44.4218  -40.0083   -1.8387 H   0  0  0  0  0  0
  -44.4640  -41.5632   -4.4124 H   0  0  0  0  0  0
  -44.8301  -39.8372   -4.2132 H   0  0  0  0  0  0
  -46.8318  -41.1358   -4.3406 H   0  0  0  0  0  0
  -46.7790  -40.4278   -2.7447 H   0  0  0  0  0  0
  -46.2181  -41.8551   -0.7452 H   0  0  0  0  0  0
  -45.7067  -43.4905   -1.0660 H   0  0  0  0  0  0
  -43.7979  -41.9333   -0.5862 H   0  0  0  0  0  0
  -43.6862  -42.9414   -2.0368 H   0  0  0  0  0  0
  -48.3231  -42.5351   -2.1016 H   0  0  0  0  0  0
  -47.5897  -44.1162   -2.3035 H   0  0  0  0  0  0
  -45.8015  -44.3482   -4.2300 H   0  0  0  0  0  0
  -45.6833  -44.0939   -5.9193 H   0  0  0  0  0  0
  -47.3823  -46.2970   -4.6378 H   0  0  0  0  0  0
  -45.8755  -46.5557   -5.4514 H   0  0  0  0  0  0
  -46.8078  -45.9043   -7.6168 H   0  0  0  0  0  0
  -47.8827  -47.0878   -6.9090 H   0  0  0  0  0  0
  -49.0846  -45.0900   -7.9114 H   0  0  0  0  0  0
  -49.4766  -45.3375   -6.2346 H   0  0  0  0  0  0
  -48.9755  -42.8603   -6.6876 H   0  0  0  0  0  0
  -47.4240  -43.3047   -7.2829 H   0  0  0  0  0  0
  1  2  1  0  0  0
  1 36  1  0  0  0
  1 37  1  0  0  0
  1 38  1  0  0  0
  2  3  1  0  0  0
  2  4  1  0  0  0
  2 39  1  0  0  0
  3 40  1  0  0  0
  3 41  1  0  0  0
  3 42  1  0  0  0
  4  9  1  0  0  0
  4  5  1  0  0  0
  5  6  2  0  0  0
  5 43  1  0  0  0
  6  7  1  0  0  0
  6 11  1  0  0  0
  7  8  2  0  0  0
  7 44  1  0  0  0
  8  9  1  0  0  0
  8 45  1  0  0  0
  9 10  2  0  0  0
 11 16  1  0  0  0
 11 12  2  0  0  0
 12 13  1  0  0  0
 12 46  1  0  0  0
 13 14  2  0  0  0
 13 47  1  0  0  0
 14 15  1  0  0  0
 15 19  1  0  0  0
 15 16  2  0  0  0
 16 17  1  0  0  0
 17 18  2  0  0  0
 17 48  1  0  0  0
 18 19  1  0  0  0
 18 20  1  0  0  0
 19 35  1  0  0  0
 20 25  1  0  0  0
 20 21  1  0  0  0
 20 49  1  0  0  0
 21 22  1  0  0  0
 21 50  1  0  0  0
 21 51  1  0  0  0
 22 23  1  0  0  0
 22 52  1  0  0  0
 22 53  1  0  0  0
 23 24  1  0  0  0
 23 26  1  0  0  0
 24 25  1  0  0  0
 24 54  1  0  0  0
 24 55  1  0  0  0
 25 56  1  0  0  0
 25 57  1  0  0  0
 26 27  1  0  0  0
 26 58  1  0  0  0
 26 59  1  0  0  0
 27 28  2  0  0  0
 27 29  1  0  0  0
 29 34  1  0  0  0
 29 30  1  0  0  0
 30 31  1  0  0  0
 30 60  1  0  0  0
 30 61  1  0  0  0
 31 32  1  0  0  0
 31 62  1  0  0  0
 31 63  1  0  0  0
 32 33  1  0  0  0
 32 64  1  0  0  0
 32 65  1  0  0  0
 33 34  1  0  0  0
 33 66  1  0  0  0
 33 67  1  0  0  0
 34 68  1  0  0  0
 34 69  1  0  0  0
M  END
> <s_m_source_file>
/home/yujie/leadopt/data/result/selection/CDK9/lig_38.sdf

> <i_m_source_file_index>
1

> <i_lp_mmshare_version>
51139

> <i_f3d_flags>
0

> <s_epik_input>
W0NIM11bQ0hdKFtDSDNdKW4xW2NIXWMoW2NIXVtjSF1jMT1PKS1jKFtjSF1bY0hdbjIpYyhjMjMpW2NIXWMoW25IXTMpW0NIXTRbQ0gyXVtDSDJdTihbQ0gyXVtDSDJdNClbQ0gyXUMoPU8pTjVbQ0gyXVtDSDJdW0NIMl1bQ0gyXVtDSDJdNQ==

> <s_epik_cmdline>
J2VwaWtfcHl0aG9uJywgJy1waHQnLCAnMi4wJywgJy1waCcsICc3LjAnLCAnLXRuJywgJzgnLCAnLW1hJywgJzIwMCcsICctaW1hZScsICc8aW5maWxlLm1hZT4nLCAnLW9tYWUnLCAnPG91dGZpbGUubWFlPic=

> <r_lp_tautomer_probability>
0.999998

> <r_epik_Ionization_Penalty>
  1.3031

> <r_epik_Ionization_Penalty_Charging>
  0.0000

> <r_epik_Ionization_Penalty_Neutral>
  1.3031

> <r_epik_State_Penalty>
  1.3758

> <r_epik_Charging_Adjusted_Penalty>
1.37575

> <i_epik_Tot_Q>
0

> <i_epik_Tot_abs_Q>
0

> <s_lp_Force_Field>
OPLS3e

> <r_lp_Energy>
56.7461

> <b_lp_Chiralities_Consistent>
1

> <s_lp_Variant>
/home/yujie/leadopt/data/result/selection/CDK9/lig_38.sdf:1-2

> <s_i_glide_gridfile>
glide-grid_CDK9

> <i_i_glide_lignum>
2

> <i_i_glide_rotatable_bonds>
6

> <r_i_docking_score>
-7.40745638011966

> <r_i_glide_ligand_efficiency>
-0.217866364121166

> <r_i_glide_ligand_efficiency_sa>
-0.70580244347871

> <r_i_glide_ligand_efficiency_ln>
-1.63651488648218

> <r_i_glide_gscore>
-8.78320638011966

> <r_i_glide_lipo>
-2.87805735595667

> <r_i_glide_hbond>
-0.713147595736345

> <r_i_glide_metal>
-0

> <r_i_glide_rewards>
-1.81044969683532

> <r_i_glide_evdw>
-46.4038619995117

> <r_i_glide_ecoul>
-9.23524284362793

> <r_i_glide_erotb>
0.330782688121884

> <r_i_glide_esite>
-0.00685489319343893

> <r_i_glide_emodel>
-85.1597349281156

> <r_i_glide_energy>
-55.6391048431396

> <r_i_glide_einternal>
6.98806715011597

> <i_i_glide_confnum>
168

> <i_i_glide_posenum>
399

> <r_i_glide_eff_state_penalty>
1.37575

$$$$
