/home/yujie/leadopt/data/result/selection/CDK9/lig_36.sdf:1
                    3D
 Schrodinger Suite 2020-3.
 56 59  0  0  1  0            999 V2000
  -42.0781  -34.6463   -0.8032 C   0  0  0  0  0  0
  -41.6419  -34.0631   -2.1686 C   0  0  0  0  0  0
  -42.8647  -33.7339   -3.0490 C   0  0  0  0  0  0
  -40.6236  -34.8514   -2.9187 N   0  0  0  0  0  0
  -40.4853  -36.2347   -2.8250 C   0  0  0  0  0  0
  -39.5543  -36.9975   -3.4507 C   0  0  0  0  0  0
  -38.6276  -36.2477   -4.2910 C   0  0  0  0  0  0
  -38.7365  -34.9087   -4.4072 C   0  0  0  0  0  0
  -39.7420  -34.1224   -3.7038 C   0  0  0  0  0  0
  -39.7393  -32.8994   -3.8572 O   0  0  0  0  0  0
  -39.4569  -38.4807   -3.3322 C   0  0  0  0  0  0
  -38.2082  -39.1167   -3.4566 C   0  0  0  0  0  0
  -38.1094  -40.5071   -3.3880 C   0  0  0  0  0  0
  -39.1582  -41.3440   -3.1955 N   0  0  0  0  0  0
  -40.3344  -40.7323   -3.0568 C   0  0  0  0  0  0
  -40.5738  -39.3290   -3.1043 C   0  0  0  0  0  0
  -41.9899  -39.1756   -2.9079 C   0  0  0  0  0  0
  -42.5356  -40.4258   -2.6580 C   0  0  0  0  0  0
  -41.5294  -41.3565   -2.7981 N   0  0  0  0  0  0
  -43.9457  -40.8294   -2.2741 C   0  0  1  0  0  0
  -44.9480  -40.7812   -3.4506 C   0  0  0  0  0  0
  -46.3844  -41.1506   -3.0238 C   0  0  0  0  0  0
  -46.3502  -42.5369   -2.3458 N   0  3  1  0  0  0
  -45.4640  -42.5050   -1.0825 C   0  0  0  0  0  0
  -44.0280  -42.1586   -1.4879 C   0  0  0  0  0  0
  -47.7719  -43.1198   -2.0880 C   0  0  0  0  0  0
  -48.4059  -42.7347   -0.7335 C   0  0  0  0  0  0
  -49.7305  -42.8563   -0.7698 F   0  0  0  0  0  0
  -47.9539  -43.4931    0.2654 F   0  0  0  0  0  0
  -41.6752  -42.3499   -2.6587 H   0  0  0  0  0  0
  -42.7612  -33.9602   -0.2990 H   0  0  0  0  0  0
  -41.2293  -34.7821   -0.1309 H   0  0  0  0  0  0
  -42.6211  -35.5871   -0.8976 H   0  0  0  0  0  0
  -41.2021  -33.0952   -1.9110 H   0  0  0  0  0  0
  -43.6468  -33.2419   -2.4677 H   0  0  0  0  0  0
  -42.6077  -33.0408   -3.8508 H   0  0  0  0  0  0
  -43.3110  -34.6307   -3.4821 H   0  0  0  0  0  0
  -41.2152  -36.6663   -2.1609 H   0  0  0  0  0  0
  -37.8563  -36.7601   -4.8519 H   0  0  0  0  0  0
  -38.0466  -34.3758   -5.0486 H   0  0  0  0  0  0
  -37.3071  -38.5412   -3.6067 H   0  0  0  0  0  0
  -37.1461  -40.9864   -3.4861 H   0  0  0  0  0  0
  -42.5590  -38.2602   -2.8952 H   0  0  0  0  0  0
  -44.3283  -40.0860   -1.5702 H   0  0  0  0  0  0
  -44.9843  -39.7710   -3.8572 H   0  0  0  0  0  0
  -44.6446  -41.4799   -4.2327 H   0  0  0  0  0  0
  -46.7979  -40.4476   -2.2991 H   0  0  0  0  0  0
  -47.0510  -41.2109   -3.8861 H   0  0  0  0  0  0
  -45.8767  -41.7773   -0.3795 H   0  0  0  0  0  0
  -45.5227  -43.4962   -0.6553 H   0  0  0  0  0  0
  -43.6550  -42.9920   -2.0844 H   0  0  0  0  0  0
  -43.4435  -42.0864   -0.5694 H   0  0  0  0  0  0
  -48.3879  -42.8113   -2.9326 H   0  0  0  0  0  0
  -47.6414  -44.2013   -2.1562 H   0  0  0  0  0  0
  -48.2178  -41.6935   -0.4761 H   0  0  0  0  0  0
  -45.8920  -43.1715   -2.9907 H   0  0  0  0  0  0
  1  2  1  0  0  0
  1 31  1  0  0  0
  1 32  1  0  0  0
  1 33  1  0  0  0
  2  3  1  0  0  0
  2  4  1  0  0  0
  2 34  1  0  0  0
  3 35  1  0  0  0
  3 36  1  0  0  0
  3 37  1  0  0  0
  4  9  1  0  0  0
  4  5  1  0  0  0
  5  6  2  0  0  0
  5 38  1  0  0  0
  6  7  1  0  0  0
  6 11  1  0  0  0
  7  8  2  0  0  0
  7 39  1  0  0  0
  8  9  1  0  0  0
  8 40  1  0  0  0
  9 10  2  0  0  0
 11 16  1  0  0  0
 11 12  2  0  0  0
 12 13  1  0  0  0
 12 41  1  0  0  0
 13 14  2  0  0  0
 13 42  1  0  0  0
 14 15  1  0  0  0
 15 19  1  0  0  0
 15 16  2  0  0  0
 16 17  1  0  0  0
 17 18  2  0  0  0
 17 43  1  0  0  0
 18 19  1  0  0  0
 18 20  1  0  0  0
 19 30  1  0  0  0
 20 25  1  0  0  0
 20 21  1  0  0  0
 20 44  1  0  0  0
 21 22  1  0  0  0
 21 45  1  0  0  0
 21 46  1  0  0  0
 22 23  1  0  0  0
 22 47  1  0  0  0
 22 48  1  0  0  0
 23 24  1  0  0  0
 23 26  1  0  0  0
 23 56  1  0  0  0
 24 25  1  0  0  0
 24 49  1  0  0  0
 24 50  1  0  0  0
 25 51  1  0  0  0
 25 52  1  0  0  0
 26 27  1  0  0  0
 26 53  1  0  0  0
 26 54  1  0  0  0
 27 28  1  0  0  0
 27 29  1  0  0  0
 27 55  1  0  0  0
M  CHG  1  23   1
M  END
> <s_m_source_file>
/home/yujie/leadopt/data/result/selection/CDK9/lig_36.sdf

> <i_m_source_file_index>
1

> <i_lp_mmshare_version>
51139

> <i_f3d_flags>
0

> <s_epik_input>
W0NIM11bQ0hdKFtDSDNdKW4xW2NIXWMoW2NIXVtjSF1jMT1PKS1jKFtjSF1bY0hdbjIpYyhjMjMpW2NIXWMoW25IXTMpW0NIXTRbQ0gyXVtDSDJdTihbQ0gyXVtDSDJdNClbQ0gyXVtDSF0oRilG

> <s_epik_cmdline>
J2VwaWtfcHl0aG9uJywgJy1waHQnLCAnMi4wJywgJy1waCcsICc3LjAnLCAnLXRuJywgJzgnLCAnLW1hJywgJzIwMCcsICctaW1hZScsICc8aW5maWxlLm1hZT4nLCAnLW9tYWUnLCAnPG91dGZpbGUubWFlPic=

> <r_lp_tautomer_probability>
0.999998

> <r_epik_Ionization_Penalty>
  0.5871

> <r_epik_Ionization_Penalty_Charging>
  0.5860

> <r_epik_Ionization_Penalty_Neutral>
  0.0011

> <r_epik_State_Penalty>
  0.5760

> <r_epik_Charging_Adjusted_Penalty>
1.16199

> <i_epik_Tot_Q>
1

> <i_epik_Tot_abs_Q>
1

> <s_lp_Force_Field>
OPLS3e

> <r_lp_Energy>
56.2912

> <b_lp_Chiralities_Consistent>
1

> <s_lp_Variant>
/home/yujie/leadopt/data/result/selection/CDK9/lig_36.sdf:1-2

> <s_i_glide_gridfile>
glide-grid_CDK9

> <i_i_glide_lignum>
2

> <i_i_glide_rotatable_bonds>
5

> <r_i_docking_score>
-8.81561241576932

> <r_i_glide_ligand_efficiency>
-0.303986635026528

> <r_i_glide_ligand_efficiency_sa>
-0.933943252527338

> <r_i_glide_ligand_efficiency_ln>
-2.01855169856827

> <r_i_glide_gscore>
-9.39159441576932

> <r_i_glide_lipo>
-2.83873586480162

> <r_i_glide_hbond>
-0.680367737353399

> <r_i_glide_metal>
-0

> <r_i_glide_rewards>
-2.24925740261786

> <r_i_glide_evdw>
-43.5006294250488

> <r_i_glide_ecoul>
-10.6892738342285

> <r_i_glide_erotb>
0.255553537868189

> <r_i_glide_esite>
-0.100364402477916

> <r_i_glide_emodel>
-78.3346733987741

> <r_i_glide_energy>
-54.1899032592773

> <r_i_glide_einternal>
23.878978729248

> <i_i_glide_confnum>
9

> <i_i_glide_posenum>
361

> <r_i_glide_eff_state_penalty>
0.575982

$$$$
