/home/yujie/leadopt/data/result/selection/CDK9/lig_23.sdf:1
                    3D
 Schrodinger Suite 2020-3.
 60 63  0  0  1  0            999 V2000
  -42.8576  -33.7443   -3.1061 C   0  0  0  0  0  0
  -41.6324  -34.1967   -2.2932 C   0  0  0  0  0  0
  -40.6541  -34.9681   -3.0801 N   0  0  0  0  0  0
  -40.5428  -36.3441   -2.9668 C   0  0  0  0  0  0
  -39.6372  -37.1247   -3.6044 C   0  0  0  0  0  0
  -38.7410  -36.4032   -4.5019 C   0  0  0  0  0  0
  -38.8282  -35.0620   -4.6288 C   0  0  0  0  0  0
  -39.7595  -34.2514   -3.8565 C   0  0  0  0  0  0
  -39.6795  -33.0233   -3.9314 O   0  0  0  0  0  0
  -39.5111  -38.5923   -3.4135 C   0  0  0  0  0  0
  -38.2437  -39.1942   -3.4948 C   0  0  0  0  0  0
  -38.1050  -40.5759   -3.3746 C   0  0  0  0  0  0
  -39.1334  -41.4327   -3.1662 N   0  0  0  0  0  0
  -40.3257  -40.8484   -3.0564 C   0  0  0  0  0  0
  -40.6067  -39.4560   -3.1502 C   0  0  0  0  0  0
  -42.0306  -39.3363   -2.9495 C   0  0  0  0  0  0
  -42.5333  -40.6006   -2.6568 C   0  0  0  0  0  0
  -41.5000  -41.4935   -2.7722 N   0  0  0  0  0  0
  -43.8972  -41.1201   -2.2418 C   0  0  1  0  0  0
  -44.8124  -40.0469   -1.6192 C   0  0  0  0  0  0
  -46.0935  -40.6873   -1.0567 C   0  0  0  0  0  0
  -46.8110  -41.4502   -2.1973 N   0  3  1  0  0  0
  -45.9239  -42.5317   -2.8671 C   0  0  0  0  0  0
  -44.6318  -41.8659   -3.3784 C   0  0  0  0  0  0
  -48.2296  -41.9554   -1.7844 C   0  0  0  0  0  0
  -48.2741  -43.0223   -0.6572 C   0  0  0  0  0  0
  -47.2295  -43.5333   -0.2561 O   0  0  0  0  0  0
  -49.4817  -43.3772   -0.1453 N   0  0  0  0  0  0
  -50.7737  -42.8511   -0.5966 C   0  0  0  0  0  0
  -49.6103  -44.3603    0.9348 C   0  0  0  0  0  0
  -41.6279  -42.4879   -2.6074 H   0  0  0  0  0  0
  -43.5678  -33.2234   -2.4632 H   0  0  0  0  0  0
  -42.5767  -33.0474   -3.8960 H   0  0  0  0  0  0
  -43.3779  -34.5907   -3.5555 H   0  0  0  0  0  0
  -41.9666  -34.7869   -1.4389 H   0  0  0  0  0  0
  -41.1554  -33.3153   -1.8583 H   0  0  0  0  0  0
  -41.2400  -36.7370   -2.2408 H   0  0  0  0  0  0
  -38.0284  -36.9433   -5.1080 H   0  0  0  0  0  0
  -38.1670  -34.5497   -5.3095 H   0  0  0  0  0  0
  -37.3579  -38.5969   -3.6574 H   0  0  0  0  0  0
  -37.1276  -41.0312   -3.4463 H   0  0  0  0  0  0
  -42.6224  -38.4338   -2.9613 H   0  0  0  0  0  0
  -43.7289  -41.8548   -1.4492 H   0  0  0  0  0  0
  -45.0768  -39.2796   -2.3481 H   0  0  0  0  0  0
  -44.3065  -39.5695   -0.7777 H   0  0  0  0  0  0
  -46.7885  -39.9436   -0.6612 H   0  0  0  0  0  0
  -45.8632  -41.4072   -0.2681 H   0  0  0  0  0  0
  -45.6967  -43.3008   -2.1277 H   0  0  0  0  0  0
  -46.5039  -42.9808   -3.6745 H   0  0  0  0  0  0
  -44.0016  -42.6708   -3.7610 H   0  0  0  0  0  0
  -44.8720  -41.1892   -4.1993 H   0  0  0  0  0  0
  -48.6596  -42.3603   -2.7008 H   0  0  0  0  0  0
  -48.7609  -41.0534   -1.4775 H   0  0  0  0  0  0
  -50.7087  -42.1498   -1.4275 H   0  0  0  0  0  0
  -51.2762  -42.3401    0.2262 H   0  0  0  0  0  0
  -51.4169  -43.6709   -0.9173 H   0  0  0  0  0  0
  -48.6487  -44.7103    1.3151 H   0  0  0  0  0  0
  -50.1562  -43.9274    1.7731 H   0  0  0  0  0  0
  -50.1655  -45.2322    0.5876 H   0  0  0  0  0  0
  -46.9620  -40.7519   -2.9121 H   0  0  0  0  0  0
  1  2  1  0  0  0
  1 32  1  0  0  0
  1 33  1  0  0  0
  1 34  1  0  0  0
  2  3  1  0  0  0
  2 35  1  0  0  0
  2 36  1  0  0  0
  3  8  1  0  0  0
  3  4  1  0  0  0
  4  5  2  0  0  0
  4 37  1  0  0  0
  5  6  1  0  0  0
  5 10  1  0  0  0
  6  7  2  0  0  0
  6 38  1  0  0  0
  7  8  1  0  0  0
  7 39  1  0  0  0
  8  9  2  0  0  0
 10 15  1  0  0  0
 10 11  2  0  0  0
 11 12  1  0  0  0
 11 40  1  0  0  0
 12 13  2  0  0  0
 12 41  1  0  0  0
 13 14  1  0  0  0
 14 18  1  0  0  0
 14 15  2  0  0  0
 15 16  1  0  0  0
 16 17  2  0  0  0
 16 42  1  0  0  0
 17 18  1  0  0  0
 17 19  1  0  0  0
 18 31  1  0  0  0
 19 24  1  0  0  0
 19 20  1  0  0  0
 19 43  1  0  0  0
 20 21  1  0  0  0
 20 44  1  0  0  0
 20 45  1  0  0  0
 21 22  1  0  0  0
 21 46  1  0  0  0
 21 47  1  0  0  0
 22 23  1  0  0  0
 22 25  1  0  0  0
 22 60  1  0  0  0
 23 24  1  0  0  0
 23 48  1  0  0  0
 23 49  1  0  0  0
 24 50  1  0  0  0
 24 51  1  0  0  0
 25 26  1  0  0  0
 25 52  1  0  0  0
 25 53  1  0  0  0
 26 27  2  0  0  0
 26 28  1  0  0  0
 28 29  1  0  0  0
 28 30  1  0  0  0
 29 54  1  0  0  0
 29 55  1  0  0  0
 29 56  1  0  0  0
 30 57  1  0  0  0
 30 58  1  0  0  0
 30 59  1  0  0  0
M  CHG  1  22   1
M  END
> <s_m_source_file>
/home/yujie/leadopt/data/result/selection/CDK9/lig_23.sdf

> <i_m_source_file_index>
1

> <i_lp_mmshare_version>
51139

> <i_f3d_flags>
0

> <s_epik_input>
W0NIM11bQ0gyXW4xW2NIXWMoW2NIXVtjSF1jMT1PKS1jKFtjSF1bY0hdbjIpYyhjMjMpW2NIXWMoW25IXTMpW0NIXTRbQ0gyXVtDSDJdTihbQ0gyXVtDSDJdNClbQ0gyXUMoPU8pTihbQ0gzXSlbQ0gzXQ==

> <s_epik_cmdline>
J2VwaWtfcHl0aG9uJywgJy1waHQnLCAnMi4wJywgJy1waCcsICc3LjAnLCAnLXRuJywgJzgnLCAnLW1hJywgJzIwMCcsICctaW1hZScsICc8aW5maWxlLm1hZT4nLCAnLW9tYWUnLCAnPG91dGZpbGUubWFlPic=

> <r_lp_tautomer_probability>
0.999998

> <r_epik_Ionization_Penalty>
  0.0792

> <r_epik_Ionization_Penalty_Charging>
  0.0781

> <r_epik_Ionization_Penalty_Neutral>
  0.0011

> <r_epik_State_Penalty>
  0.0690

> <r_epik_Charging_Adjusted_Penalty>
0.147046

> <i_epik_Tot_Q>
1

> <i_epik_Tot_abs_Q>
1

> <s_lp_Force_Field>
OPLS3e

> <r_lp_Energy>
58.8388

> <b_lp_Chiralities_Consistent>
1

> <s_lp_Variant>
/home/yujie/leadopt/data/result/selection/CDK9/lig_23.sdf:1-1

> <s_i_glide_gridfile>
glide-grid_CDK9

> <i_i_glide_lignum>
1

> <i_i_glide_rotatable_bonds>
6

> <r_i_docking_score>
-8.96675336308653

> <r_i_glide_ligand_efficiency>
-0.298891778769551

> <r_i_glide_ligand_efficiency_sa>
-0.928726249702191

> <r_i_glide_ligand_efficiency_ln>
-2.03734406469635

> <r_i_glide_gscore>
-9.03573556308653

> <r_i_glide_lipo>
-2.63652462847569

> <r_i_glide_hbond>
-0.741754966211922

> <r_i_glide_metal>
-0

> <r_i_glide_rewards>
-2.23359093810885

> <r_i_glide_evdw>
-44.2685775756836

> <r_i_glide_ecoul>
-9.47919750213623

> <r_i_glide_erotb>
0.330224485657351

> <r_i_glide_esite>
-0.118781011842801

> <r_i_glide_emodel>
-83.9708211524351

> <r_i_glide_energy>
-53.7477750778198

> <r_i_glide_einternal>
9.08303642272949

> <i_i_glide_confnum>
24

> <i_i_glide_posenum>
386

> <r_i_glide_eff_state_penalty>
0.0689822

$$$$
