/home/yujie/leadopt/data/result/selection/CDK9/lig_17.sdf:1
                    3D
 Schrodinger Suite 2020-3.
 66 70  0  0  1  0            999 V2000
  -41.1069  -36.7041    0.1801 C   0  0  0  0  0  0
  -40.5036  -37.2850   -0.9717 O   0  0  0  0  0  0
  -40.2501  -36.5257   -2.0969 C   0  0  0  0  0  0
  -40.5310  -35.1574   -2.1705 C   0  0  0  0  0  0
  -40.3194  -34.4293   -3.3464 C   0  0  0  0  0  0
  -39.6759  -35.0773   -4.4114 C   0  0  0  0  0  0
  -39.3648  -36.4303   -4.3458 C   0  0  0  0  0  0
  -39.6993  -37.1744   -3.2145 C   0  0  0  0  0  0
  -39.5326  -38.6451   -3.2384 C   0  0  0  0  0  0
  -38.2897  -39.2527   -3.4566 C   0  0  0  0  0  0
  -38.1918  -40.6457   -3.4542 C   0  0  0  0  0  0
  -39.2370  -41.4918   -3.2470 N   0  0  0  0  0  0
  -40.4140  -40.8873   -3.0568 C   0  0  0  0  0  0
  -40.6447  -39.4905   -3.0496 C   0  0  0  0  0  0
  -42.0543  -39.3128   -2.8321 C   0  0  0  0  0  0
  -42.6288  -40.5626   -2.6856 C   0  0  0  0  0  0
  -41.6239  -41.4935   -2.8154 N   0  0  0  0  0  0
  -44.0671  -40.9861   -2.4627 C   0  0  1  0  0  0
  -44.7680  -41.5018   -3.7452 C   0  0  0  0  0  0
  -46.1427  -42.1468   -3.5546 C   0  0  0  0  0  0
  -46.0282  -43.1502   -2.3972 N   0  3  1  0  0  0
  -45.7538  -42.3972   -1.0788 C   0  0  0  0  0  0
  -44.3444  -41.7830   -1.1598 C   0  0  0  0  0  0
  -47.2534  -44.0933   -2.2890 C   0  0  0  0  0  0
  -47.4337  -44.9828   -3.5507 C   0  0  0  0  0  0
  -46.2140  -45.4935   -4.0726 O   0  0  0  0  0  0
  -40.7483  -32.9871   -3.5331 C   0  0  0  0  0  0
  -40.0315  -32.2935   -4.2567 O   0  0  0  0  0  0
  -41.9424  -32.5276   -3.0567 N   0  0  0  0  0  0
  -42.6632  -33.0494   -1.8843 C   0  0  0  0  0  0
  -43.6836  -31.9733   -1.5296 C   0  0  0  0  0  0
  -43.2291  -30.7185   -2.2568 C   0  0  0  0  0  0
  -42.4723  -31.2206   -3.4828 C   0  0  0  0  0  0
  -41.7886  -42.4898   -2.7224 H   0  0  0  0  0  0
  -41.2212  -37.4857    0.9328 H   0  0  0  0  0  0
  -40.4854  -35.9154    0.6083 H   0  0  0  0  0  0
  -42.0986  -36.3053   -0.0369 H   0  0  0  0  0  0
  -40.9103  -34.6797   -1.2904 H   0  0  0  0  0  0
  -39.4620  -34.5487   -5.3295 H   0  0  0  0  0  0
  -38.9251  -36.9136   -5.2063 H   0  0  0  0  0  0
  -37.4073  -38.6483   -3.6132 H   0  0  0  0  0  0
  -37.2297  -41.1117   -3.6104 H   0  0  0  0  0  0
  -42.5884  -38.3760   -2.7744 H   0  0  0  0  0  0
  -44.6877  -40.1100   -2.2587 H   0  0  0  0  0  0
  -44.8971  -40.6928   -4.4524 H   0  0  0  0  0  0
  -44.1485  -42.2798   -4.1954 H   0  0  0  0  0  0
  -46.9078  -41.4180   -3.2792 H   0  0  0  0  0  0
  -46.4595  -42.6712   -4.4562 H   0  0  0  0  0  0
  -46.5300  -41.6372   -0.9575 H   0  0  0  0  0  0
  -45.8419  -43.1016   -0.2562 H   0  0  0  0  0  0
  -43.6629  -42.6344   -1.1107 H   0  0  0  0  0  0
  -44.1900  -41.1598   -0.2765 H   0  0  0  0  0  0
  -47.0799  -44.7104   -1.4058 H   0  0  0  0  0  0
  -48.1206  -43.4576   -2.0988 H   0  0  0  0  0  0
  -48.0813  -45.8276   -3.3097 H   0  0  0  0  0  0
  -47.9585  -44.4305   -4.3314 H   0  0  0  0  0  0
  -46.1194  -46.4459   -3.8564 H   0  0  0  0  0  0
  -42.0213  -33.0951   -1.0062 H   0  0  0  0  0  0
  -43.1644  -33.9993   -2.0753 H   0  0  0  0  0  0
  -43.7477  -31.8215   -0.4513 H   0  0  0  0  0  0
  -44.6660  -32.2958   -1.8571 H   0  0  0  0  0  0
  -44.0295  -30.0286   -2.5191 H   0  0  0  0  0  0
  -42.5460  -30.1454   -1.6287 H   0  0  0  0  0  0
  -43.2054  -31.3594   -4.2794 H   0  0  0  0  0  0
  -41.7004  -30.4918   -3.7402 H   0  0  0  0  0  0
  -45.2406  -43.7653   -2.5712 H   0  0  0  0  0  0
  1  2  1  0  0  0
  1 35  1  0  0  0
  1 36  1  0  0  0
  1 37  1  0  0  0
  2  3  1  0  0  0
  3  8  1  0  0  0
  3  4  2  0  0  0
  4  5  1  0  0  0
  4 38  1  0  0  0
  5  6  2  0  0  0
  5 27  1  0  0  0
  6  7  1  0  0  0
  6 39  1  0  0  0
  7  8  2  0  0  0
  7 40  1  0  0  0
  8  9  1  0  0  0
  9 14  1  0  0  0
  9 10  2  0  0  0
 10 11  1  0  0  0
 10 41  1  0  0  0
 11 12  2  0  0  0
 11 42  1  0  0  0
 12 13  1  0  0  0
 13 17  1  0  0  0
 13 14  2  0  0  0
 14 15  1  0  0  0
 15 16  2  0  0  0
 15 43  1  0  0  0
 16 17  1  0  0  0
 16 18  1  0  0  0
 17 34  1  0  0  0
 18 23  1  0  0  0
 18 19  1  0  0  0
 18 44  1  0  0  0
 19 20  1  0  0  0
 19 45  1  0  0  0
 19 46  1  0  0  0
 20 21  1  0  0  0
 20 47  1  0  0  0
 20 48  1  0  0  0
 21 22  1  0  0  0
 21 24  1  0  0  0
 21 66  1  0  0  0
 22 23  1  0  0  0
 22 49  1  0  0  0
 22 50  1  0  0  0
 23 51  1  0  0  0
 23 52  1  0  0  0
 24 25  1  0  0  0
 24 53  1  0  0  0
 24 54  1  0  0  0
 25 26  1  0  0  0
 25 55  1  0  0  0
 25 56  1  0  0  0
 26 57  1  0  0  0
 27 28  2  0  0  0
 27 29  1  0  0  0
 29 33  1  0  0  0
 29 30  1  0  0  0
 30 31  1  0  0  0
 30 58  1  0  0  0
 30 59  1  0  0  0
 31 32  1  0  0  0
 31 60  1  0  0  0
 31 61  1  0  0  0
 32 33  1  0  0  0
 32 62  1  0  0  0
 32 63  1  0  0  0
 33 64  1  0  0  0
 33 65  1  0  0  0
M  CHG  1  21   1
M  END
> <s_m_source_file>
/home/yujie/leadopt/data/result/selection/CDK9/lig_17.sdf

> <i_m_source_file_index>
1

> <i_lp_mmshare_version>
51139

> <i_f3d_flags>
0

> <s_epik_input>
W0NIMl0xW0NIMl1bQ0gyXVtDSDJdTjFDKD1PKWMoW2NIXWMyT1tDSDNdKVtjSF1bY0hdYzItYyhbY0hdW2NIXW4zKWMoYzM0KVtjSF1jKFtuSF00KVtDSF01W0NIMl1bQ0gyXU4oW0NIMl1bQ0gyXTUpW0NIMl1bQ0gyXVtPSF0=

> <s_epik_cmdline>
J2VwaWtfcHl0aG9uJywgJy1waHQnLCAnMi4wJywgJy1waCcsICc3LjAnLCAnLXRuJywgJzgnLCAnLW1hJywgJzIwMCcsICctaW1hZScsICc8aW5maWxlLm1hZT4nLCAnLW9tYWUnLCAnPG91dGZpbGUubWFlPic=

> <r_lp_tautomer_probability>
0.999998

> <r_epik_Ionization_Penalty>
  0.0101

> <r_epik_Ionization_Penalty_Charging>
  0.0079

> <r_epik_Ionization_Penalty_Neutral>
  0.0022

> <r_epik_State_Penalty>
  0.0059

> <r_epik_Charging_Adjusted_Penalty>
0.0138083

> <i_epik_Tot_Q>
1

> <i_epik_Tot_abs_Q>
1

> <s_lp_Force_Field>
OPLS3e

> <r_lp_Energy>
56.0178

> <b_lp_Chiralities_Consistent>
1

> <s_lp_Variant>
/home/yujie/leadopt/data/result/selection/CDK9/lig_17.sdf:1-1

> <s_i_glide_gridfile>
glide-grid_CDK9

> <i_i_glide_lignum>
1

> <i_i_glide_rotatable_bonds>
8

> <r_i_docking_score>
-10.1025593464821

> <r_i_glide_ligand_efficiency>
-0.306138162014608

> <r_i_glide_ligand_efficiency_sa>
-0.981948663239217

> <r_i_glide_ligand_efficiency_ln>
-2.24675689040479

> <r_i_glide_gscore>
-10.1084775064821

> <r_i_glide_lipo>
-3.00862743148913

> <r_i_glide_hbond>
-0.864

> <r_i_glide_metal>
-0

> <r_i_glide_rewards>
-1.7226848346779

> <r_i_glide_evdw>
-41.6548500061035

> <r_i_glide_ecoul>
-17.5513191223145

> <r_i_glide_erotb>
0.416488898233365

> <r_i_glide_esite>
-0.21421376989606

> <r_i_glide_emodel>
-94.3643780929996

> <r_i_glide_energy>
-59.206169128418

> <r_i_glide_einternal>
5.45447444915771

> <i_i_glide_confnum>
180

> <i_i_glide_posenum>
162

> <r_i_glide_eff_state_penalty>
0.00591816

$$$$
