/home/yujie/leadopt/data/result/selection/CDK9/lig_8.sdf:1
                    3D
 Schrodinger Suite 2020-3.
 45 48  0  0  1  0            999 V2000
  -41.2776  -36.2694   -0.2575 C   0  0  0  0  0  0
  -40.7197  -37.0216   -1.3328 O   0  0  0  0  0  0
  -40.1820  -36.3670   -2.4269 C   0  0  0  0  0  0
  -40.2228  -34.9686   -2.5814 C   0  0  0  0  0  0
  -39.6175  -34.3540   -3.6740 C   0  0  0  0  0  0
  -38.9634  -35.1218   -4.6257 C   0  0  0  0  0  0
  -38.9308  -36.5067   -4.5008 C   0  0  0  0  0  0
  -39.5396  -37.1462   -3.4119 C   0  0  0  0  0  0
  -39.4365  -38.6286   -3.3116 C   0  0  0  0  0  0
  -38.1813  -39.2479   -3.3891 C   0  0  0  0  0  0
  -38.0740  -40.6331   -3.2881 C   0  0  0  0  0  0
  -39.1260  -41.4753   -3.1204 N   0  0  0  0  0  0
  -40.3163  -40.8730   -3.0562 C   0  0  0  0  0  0
  -40.5594  -39.4758   -3.1443 C   0  0  0  0  0  0
  -41.9842  -39.3220   -3.0288 C   0  0  0  0  0  0
  -42.5521  -40.5740   -2.8019 C   0  0  0  0  0  0
  -41.5268  -41.4935   -2.8547 N   0  0  0  0  0  0
  -43.9998  -41.0061   -2.5619 C   0  0  0  0  0  0
  -44.1591  -42.2304   -1.6198 C   0  0  0  0  0  0
  -45.6253  -42.6937   -1.5010 C   0  0  0  0  0  0
  -46.5186  -41.5177   -1.0569 N   0  3  0  0  0  0
  -46.3836  -40.2759   -1.9582 C   0  0  0  0  0  0
  -44.9030  -39.8562   -2.0577 C   0  0  0  0  0  0
  -39.6483  -33.0105   -3.8135 F   0  0  0  0  0  0
  -41.6732  -42.4866   -2.7080 H   0  0  0  0  0  0
  -41.6111  -36.9527    0.5231 H   0  0  0  0  0  0
  -40.5422  -35.5971    0.1856 H   0  0  0  0  0  0
  -42.1441  -35.6904   -0.5768 H   0  0  0  0  0  0
  -40.7084  -34.3334   -1.8566 H   0  0  0  0  0  0
  -38.4749  -34.6420   -5.4565 H   0  0  0  0  0  0
  -38.4194  -37.0883   -5.2540 H   0  0  0  0  0  0
  -37.2856  -38.6537   -3.5079 H   0  0  0  0  0  0
  -37.0984  -41.0912   -3.3362 H   0  0  0  0  0  0
  -42.5299  -38.3903   -3.0580 H   0  0  0  0  0  0
  -44.4110  -41.3133   -3.5241 H   0  0  0  0  0  0
  -43.6166  -43.0919   -2.0141 H   0  0  0  0  0  0
  -43.7810  -42.0025   -0.6221 H   0  0  0  0  0  0
  -46.0245  -43.0376   -2.4569 H   0  0  0  0  0  0
  -45.7586  -43.4901   -0.7657 H   0  0  0  0  0  0
  -47.4841  -41.8176   -1.0385 H   0  0  0  0  0  0
  -46.8054  -40.5495   -2.9266 H   0  0  0  0  0  0
  -47.0078  -39.5022   -1.5033 H   0  0  0  0  0  0
  -44.5714  -39.5053   -1.0782 H   0  0  0  0  0  0
  -44.8686  -39.0204   -2.7572 H   0  0  0  0  0  0
  -46.3376  -41.2624   -0.0854 H   0  0  0  0  0  0
  1  2  1  0  0  0
  1 26  1  0  0  0
  1 27  1  0  0  0
  1 28  1  0  0  0
  2  3  1  0  0  0
  3  8  1  0  0  0
  3  4  2  0  0  0
  4  5  1  0  0  0
  4 29  1  0  0  0
  5  6  2  0  0  0
  5 24  1  0  0  0
  6  7  1  0  0  0
  6 30  1  0  0  0
  7  8  2  0  0  0
  7 31  1  0  0  0
  8  9  1  0  0  0
  9 14  1  0  0  0
  9 10  2  0  0  0
 10 11  1  0  0  0
 10 32  1  0  0  0
 11 12  2  0  0  0
 11 33  1  0  0  0
 12 13  1  0  0  0
 13 17  1  0  0  0
 13 14  2  0  0  0
 14 15  1  0  0  0
 15 16  2  0  0  0
 15 34  1  0  0  0
 16 17  1  0  0  0
 16 18  1  0  0  0
 17 25  1  0  0  0
 18 23  1  0  0  0
 18 19  1  0  0  0
 18 35  1  0  0  0
 19 20  1  0  0  0
 19 36  1  0  0  0
 19 37  1  0  0  0
 20 21  1  0  0  0
 20 38  1  0  0  0
 20 39  1  0  0  0
 21 22  1  0  0  0
 21 40  1  0  0  0
 21 45  1  0  0  0
 22 23  1  0  0  0
 22 41  1  0  0  0
 22 42  1  0  0  0
 23 43  1  0  0  0
 23 44  1  0  0  0
M  CHG  1  21   1
M  END
> <s_m_source_file>
/home/yujie/leadopt/data/result/selection/CDK9/lig_8.sdf

> <i_m_source_file_index>
1

> <i_lp_mmshare_version>
51139

> <i_f3d_flags>
0

> <s_epik_input>
W0NIM11PYzFbY0hdYyhGKVtjSF1bY0hdYzEtYyhbY0hdW2NIXW4yKWMoYzIzKVtjSF1jKFtuSF0zKVtDSF00W0NIMl1bQ0gyXVtOSF1bQ0gyXVtDSDJdNA==

> <s_epik_cmdline>
J2VwaWtfcHl0aG9uJywgJy1waHQnLCAnMi4wJywgJy1waCcsICc3LjAnLCAnLXRuJywgJzgnLCAnLW1hJywgJzIwMCcsICctaW1hZScsICc8aW5maWxlLm1hZT4nLCAnLW9tYWUnLCAnPG91dGZpbGUubWFlPic=

> <r_lp_tautomer_probability>
1

> <r_epik_Ionization_Penalty>
  0.0021

> <r_epik_Ionization_Penalty_Charging>
  0.0006

> <r_epik_Ionization_Penalty_Neutral>
  0.0016

> <r_epik_State_Penalty>
 -0.0000

> <r_epik_Charging_Adjusted_Penalty>
0.000597526

> <i_epik_Tot_Q>
1

> <i_epik_Tot_abs_Q>
1

> <s_lp_Force_Field>
OPLS3e

> <r_lp_Energy>
39.7864

> <b_lp_Chiralities_Consistent>
1

> <s_lp_Variant>
/home/yujie/leadopt/data/result/selection/CDK9/lig_8.sdf:1-1

> <s_i_glide_gridfile>
glide-grid_CDK9

> <i_i_glide_lignum>
1

> <i_i_glide_rotatable_bonds>
3

> <r_i_docking_score>
-10.1516670015725

> <r_i_glide_ligand_efficiency>
-0.422986125065521

> <r_i_glide_ligand_efficiency_sa>
-1.22010311295097

> <r_i_glide_ligand_efficiency_ln>
-2.42975974312114

> <r_i_glide_gscore>
-10.1516670015725

> <r_i_glide_lipo>
-3.21015323371164

> <r_i_glide_hbond>
-0.78545330576409

> <r_i_glide_metal>
-0

> <r_i_glide_rewards>
-2.70222504008081

> <r_i_glide_evdw>
-38.7441596984863

> <r_i_glide_ecoul>
-10.3536701202393

> <r_i_glide_erotb>
0.246464910609473

> <r_i_glide_esite>
-0.210041829665225

> <r_i_glide_emodel>
-83.2809285102295

> <r_i_glide_energy>
-49.0978298187256

> <r_i_glide_einternal>
0.977348148822784

> <i_i_glide_confnum>
10

> <i_i_glide_posenum>
91

> <r_i_glide_eff_state_penalty>
-0

$$$$
