/home/yujie/leadopt/data/result/selection/CDK9/lig_37.sdf:1
                    3D
 Schrodinger Suite 2020-3.
 54 57  0  0  1  0            999 V2000
  -43.5213  -34.0165   -3.8303 C   0  0  0  0  0  0
  -42.5720  -34.5712   -2.7481 C   0  0  0  0  0  0
  -42.4590  -33.6178   -1.5490 C   0  0  0  0  0  0
  -41.2605  -35.0553   -3.2561 N   0  0  0  0  0  0
  -40.9282  -36.3901   -3.1401 C   0  0  0  0  0  0
  -39.8203  -37.0044   -3.6160 C   0  0  0  0  0  0
  -38.8837  -36.1108   -4.2911 C   0  0  0  0  0  0
  -39.1527  -34.7896   -4.3890 C   0  0  0  0  0  0
  -40.3676  -34.1776   -3.8561 C   0  0  0  0  0  0
  -40.5211  -32.9634   -4.0043 O   0  0  0  0  0  0
  -39.5585  -38.4581   -3.4330 C   0  0  0  0  0  0
  -38.2448  -38.9560   -3.4563 C   0  0  0  0  0  0
  -38.0021  -40.3175   -3.2754 C   0  0  0  0  0  0
  -38.9639  -41.2484   -3.0624 N   0  0  0  0  0  0
  -40.2070  -40.7678   -3.0534 C   0  0  0  0  0  0
  -40.5926  -39.4104   -3.2206 C   0  0  0  0  0  0
  -42.0330  -39.4105   -3.1242 C   0  0  0  0  0  0
  -42.4572  -40.6911   -2.8091 C   0  0  0  0  0  0
  -41.3451  -41.4935   -2.8013 N   0  0  0  0  0  0
  -43.8234  -41.2705   -2.4786 C   0  0  0  0  0  0
  -44.9865  -40.2414   -2.4226 C   0  0  0  0  0  0
  -46.3585  -40.8920   -2.1103 C   0  0  0  0  0  0
  -46.5573  -41.9970   -3.0638 N   0  0  0  0  0  0
  -45.6017  -43.0982   -2.8750 C   0  0  0  0  0  0
  -44.2043  -42.5592   -3.2599 C   0  0  0  0  0  0
  -47.1978  -41.8486   -4.2503 C   0  0  0  0  0  0
  -47.1505  -42.6913   -5.1492 O   0  0  0  0  0  0
  -48.1639  -40.6727   -4.4265 C   0  0  0  0  0  0
  -41.4071  -42.4864   -2.6018 H   0  0  0  0  0  0
  -44.4873  -33.7537   -3.3980 H   0  0  0  0  0  0
  -43.1383  -33.0927   -4.2614 H   0  0  0  0  0  0
  -43.7055  -34.7460   -4.6209 H   0  0  0  0  0  0
  -43.0962  -35.4428   -2.3530 H   0  0  0  0  0  0
  -43.4420  -33.3392   -1.1700 H   0  0  0  0  0  0
  -41.9027  -34.0532   -0.7183 H   0  0  0  0  0  0
  -41.9827  -32.6929   -1.8565 H   0  0  0  0  0  0
  -41.6408  -36.9067   -2.5194 H   0  0  0  0  0  0
  -37.9723  -36.4914   -4.7273 H   0  0  0  0  0  0
  -38.4509  -34.1452   -4.8943 H   0  0  0  0  0  0
  -37.4005  -38.2974   -3.5977 H   0  0  0  0  0  0
  -36.9873  -40.6924   -3.2898 H   0  0  0  0  0  0
  -42.7096  -38.5781   -3.2324 H   0  0  0  0  0  0
  -43.7979  -41.6360   -1.4491 H   0  0  0  0  0  0
  -45.0844  -39.7309   -3.3820 H   0  0  0  0  0  0
  -44.8034  -39.5032   -1.6405 H   0  0  0  0  0  0
  -47.2009  -40.2006   -2.0599 H   0  0  0  0  0  0
  -46.3400  -41.3359   -1.1120 H   0  0  0  0  0  0
  -45.6273  -43.3749   -1.8196 H   0  0  0  0  0  0
  -45.9046  -44.0140   -3.3869 H   0  0  0  0  0  0
  -43.5021  -43.3659   -3.0554 H   0  0  0  0  0  0
  -44.2121  -42.3631   -4.3321 H   0  0  0  0  0  0
  -47.6291  -39.7226   -4.4092 H   0  0  0  0  0  0
  -48.9136  -40.6711   -3.6347 H   0  0  0  0  0  0
  -48.6830  -40.7469   -5.3818 H   0  0  0  0  0  0
  1  2  1  0  0  0
  1 30  1  0  0  0
  1 31  1  0  0  0
  1 32  1  0  0  0
  2  3  1  0  0  0
  2  4  1  0  0  0
  2 33  1  0  0  0
  3 34  1  0  0  0
  3 35  1  0  0  0
  3 36  1  0  0  0
  4  9  1  0  0  0
  4  5  1  0  0  0
  5  6  2  0  0  0
  5 37  1  0  0  0
  6  7  1  0  0  0
  6 11  1  0  0  0
  7  8  2  0  0  0
  7 38  1  0  0  0
  8  9  1  0  0  0
  8 39  1  0  0  0
  9 10  2  0  0  0
 11 16  1  0  0  0
 11 12  2  0  0  0
 12 13  1  0  0  0
 12 40  1  0  0  0
 13 14  2  0  0  0
 13 41  1  0  0  0
 14 15  1  0  0  0
 15 19  1  0  0  0
 15 16  2  0  0  0
 16 17  1  0  0  0
 17 18  2  0  0  0
 17 42  1  0  0  0
 18 19  1  0  0  0
 18 20  1  0  0  0
 19 29  1  0  0  0
 20 25  1  0  0  0
 20 21  1  0  0  0
 20 43  1  0  0  0
 21 22  1  0  0  0
 21 44  1  0  0  0
 21 45  1  0  0  0
 22 23  1  0  0  0
 22 46  1  0  0  0
 22 47  1  0  0  0
 23 24  1  0  0  0
 23 26  1  0  0  0
 24 25  1  0  0  0
 24 48  1  0  0  0
 24 49  1  0  0  0
 25 50  1  0  0  0
 25 51  1  0  0  0
 26 27  2  0  0  0
 26 28  1  0  0  0
 28 52  1  0  0  0
 28 53  1  0  0  0
 28 54  1  0  0  0
M  END
> <s_m_source_file>
/home/yujie/leadopt/data/result/selection/CDK9/lig_37.sdf

> <i_m_source_file_index>
1

> <i_lp_mmshare_version>
51139

> <i_f3d_flags>
0

> <s_epik_input>
W0NIM11bQ0hdKFtDSDNdKW4xW2NIXWMoW2NIXVtjSF1jMT1PKS1jKFtjSF1bY0hdbjIpYyhjMjMpW2NIXWMoW25IXTMpW0NIXTRbQ0gyXVtDSDJdTihbQ0gyXVtDSDJdNClDKD1PKVtDSDNd

> <s_epik_cmdline>
J2VwaWtfcHl0aG9uJywgJy1waHQnLCAnMi4wJywgJy1waCcsICc3LjAnLCAnLXRuJywgJzgnLCAnLW1hJywgJzIwMCcsICctaW1hZScsICc8aW5maWxlLm1hZT4nLCAnLW9tYWUnLCAnPG91dGZpbGUubWFlPic=

> <r_lp_tautomer_probability>
0.999998

> <r_epik_Ionization_Penalty>
  0.0016

> <r_epik_Ionization_Penalty_Charging>
  0.0000

> <r_epik_Ionization_Penalty_Neutral>
  0.0016

> <r_epik_State_Penalty>
  0.0011

> <r_epik_Charging_Adjusted_Penalty>
0.00110024

> <i_epik_Tot_Q>
0

> <i_epik_Tot_abs_Q>
0

> <s_lp_Force_Field>
OPLS3e

> <r_lp_Energy>
43.3366

> <b_lp_Chiralities_Consistent>
1

> <s_lp_Variant>
/home/yujie/leadopt/data/result/selection/CDK9/lig_37.sdf:1-1

> <s_i_glide_gridfile>
glide-grid_CDK9

> <i_i_glide_lignum>
1

> <i_i_glide_rotatable_bonds>
4

> <r_i_docking_score>
-8.96750824924735

> <r_i_glide_ligand_efficiency>
-0.320268151758834

> <r_i_glide_ligand_efficiency_sa>
-0.972522736593661

> <r_i_glide_ligand_efficiency_ln>
-2.06996420140948

> <r_i_glide_gscore>
-8.96860736924735

> <r_i_glide_lipo>
-2.81602444213209

> <r_i_glide_hbond>
-0.465278234682699

> <r_i_glide_metal>
-0

> <r_i_glide_rewards>
-2.45599728741267

> <r_i_glide_evdw>
-44.2312507629395

> <r_i_glide_ecoul>
-7.85636281967163

> <r_i_glide_erotb>
0.189414494083538

> <r_i_glide_esite>
-0.0307049380057039

> <r_i_glide_emodel>
-81.9814308841217

> <r_i_glide_energy>
-52.0876135826111

> <r_i_glide_einternal>
0.220867559313774

> <i_i_glide_confnum>
6

> <i_i_glide_posenum>
124

> <r_i_glide_eff_state_penalty>
0.00109912

$$$$
