/home/yujie/leadopt/data/result/selection/CDK9/lig_24.sdf:1
                    3D
 Schrodinger Suite 2020-3.
 63 66  0  0  1  0            999 V2000
  -43.3312  -33.9709   -3.7637 C   0  0  0  0  0  0
  -42.3664  -34.5481   -2.7041 C   0  0  0  0  0  0
  -42.1839  -33.5874   -1.5229 C   0  0  0  0  0  0
  -41.0864  -35.0921   -3.2325 N   0  0  0  0  0  0
  -40.8052  -36.4370   -3.1005 C   0  0  0  0  0  0
  -39.7323  -37.1060   -3.5842 C   0  0  0  0  0  0
  -38.7675  -36.2590   -4.2787 C   0  0  0  0  0  0
  -38.9816  -34.9282   -4.3904 C   0  0  0  0  0  0
  -40.1708  -34.2613   -3.8638 C   0  0  0  0  0  0
  -40.2852  -33.0469   -4.0405 O   0  0  0  0  0  0
  -39.5434  -38.5730   -3.4004 C   0  0  0  0  0  0
  -38.2657  -39.1549   -3.4565 C   0  0  0  0  0  0
  -38.1063  -40.5314   -3.2868 C   0  0  0  0  0  0
  -39.1219  -41.4015   -3.0570 N   0  0  0  0  0  0
  -40.3313  -40.8416   -3.0030 C   0  0  0  0  0  0
  -40.6269  -39.4601   -3.1642 C   0  0  0  0  0  0
  -42.0584  -39.3639   -3.0563 C   0  0  0  0  0  0
  -42.5644  -40.6065   -2.7362 C   0  0  0  0  0  0
  -41.5133  -41.4932   -2.7381 N   0  0  0  0  0  0
  -43.9927  -41.0322   -2.4796 C   0  0  1  0  0  0
  -44.8295  -41.2104   -3.7677 C   0  0  0  0  0  0
  -46.2062  -41.8494   -3.5848 C   0  0  0  0  0  0
  -46.0170  -43.0934   -2.6962 N   0  3  1  0  0  0
  -45.6548  -42.6312   -1.2696 C   0  0  0  0  0  0
  -44.2444  -42.0169   -1.3054 C   0  0  0  0  0  0
  -47.2528  -44.0318   -2.7311 C   0  0  0  0  0  0
  -47.2346  -44.9056   -4.0123 C   0  0  0  0  0  0
  -46.4297  -44.6455   -4.9127 O   0  0  0  0  0  0
  -48.1083  -45.9371   -4.1162 N   0  0  0  0  0  0
  -49.0330  -46.3541   -3.0602 C   0  0  0  0  0  0
  -48.0690  -46.8641   -5.2519 C   0  0  0  0  0  0
  -41.6303  -42.4845   -2.5519 H   0  0  0  0  0  0
  -44.2514  -33.6255   -3.2913 H   0  0  0  0  0  0
  -42.9128  -33.0941   -4.2566 H   0  0  0  0  0  0
  -43.6289  -34.7165   -4.5026 H   0  0  0  0  0  0
  -42.9150  -35.3911   -2.2826 H   0  0  0  0  0  0
  -43.1427  -33.2528   -1.1264 H   0  0  0  0  0  0
  -41.6322  -34.0396   -0.6980 H   0  0  0  0  0  0
  -41.6675  -32.6939   -1.8567 H   0  0  0  0  0  0
  -41.5337  -36.9122   -2.4663 H   0  0  0  0  0  0
  -37.8719  -36.6843   -4.7069 H   0  0  0  0  0  0
  -38.2546  -34.3171   -4.9024 H   0  0  0  0  0  0
  -37.3860  -38.5490   -3.6156 H   0  0  0  0  0  0
  -37.1187  -40.9699   -3.3266 H   0  0  0  0  0  0
  -42.6843  -38.4940   -3.1748 H   0  0  0  0  0  0
  -44.5458  -40.1847   -2.0671 H   0  0  0  0  0  0
  -44.2966  -41.8935   -4.4338 H   0  0  0  0  0  0
  -44.9605  -40.2469   -4.2567 H   0  0  0  0  0  0
  -46.6441  -42.1445   -4.5391 H   0  0  0  0  0  0
  -46.9048  -41.1831   -3.0750 H   0  0  0  0  0  0
  -46.4118  -41.9145   -0.9411 H   0  0  0  0  0  0
  -45.6959  -43.4936   -0.6143 H   0  0  0  0  0  0
  -44.0403  -41.5414   -0.3433 H   0  0  0  0  0  0
  -43.5773  -42.8732   -1.4130 H   0  0  0  0  0  0
  -48.1380  -43.3998   -2.6485 H   0  0  0  0  0  0
  -47.1675  -44.6702   -1.8507 H   0  0  0  0  0  0
  -48.6747  -47.2767   -2.5995 H   0  0  0  0  0  0
  -50.0196  -46.5534   -3.4810 H   0  0  0  0  0  0
  -49.1669  -45.6145   -2.2709 H   0  0  0  0  0  0
  -47.4729  -46.4905   -6.0850 H   0  0  0  0  0  0
  -47.6341  -47.8162   -4.9435 H   0  0  0  0  0  0
  -49.0739  -47.0512   -5.6309 H   0  0  0  0  0  0
  -45.2449  -43.6470   -3.0498 H   0  0  0  0  0  0
  1  2  1  0  0  0
  1 33  1  0  0  0
  1 34  1  0  0  0
  1 35  1  0  0  0
  2  3  1  0  0  0
  2  4  1  0  0  0
  2 36  1  0  0  0
  3 37  1  0  0  0
  3 38  1  0  0  0
  3 39  1  0  0  0
  4  9  1  0  0  0
  4  5  1  0  0  0
  5  6  2  0  0  0
  5 40  1  0  0  0
  6  7  1  0  0  0
  6 11  1  0  0  0
  7  8  2  0  0  0
  7 41  1  0  0  0
  8  9  1  0  0  0
  8 42  1  0  0  0
  9 10  2  0  0  0
 11 16  1  0  0  0
 11 12  2  0  0  0
 12 13  1  0  0  0
 12 43  1  0  0  0
 13 14  2  0  0  0
 13 44  1  0  0  0
 14 15  1  0  0  0
 15 19  1  0  0  0
 15 16  2  0  0  0
 16 17  1  0  0  0
 17 18  2  0  0  0
 17 45  1  0  0  0
 18 19  1  0  0  0
 18 20  1  0  0  0
 19 32  1  0  0  0
 20 25  1  0  0  0
 20 21  1  0  0  0
 20 46  1  0  0  0
 21 22  1  0  0  0
 21 47  1  0  0  0
 21 48  1  0  0  0
 22 23  1  0  0  0
 22 49  1  0  0  0
 22 50  1  0  0  0
 23 24  1  0  0  0
 23 26  1  0  0  0
 23 63  1  0  0  0
 24 25  1  0  0  0
 24 51  1  0  0  0
 24 52  1  0  0  0
 25 53  1  0  0  0
 25 54  1  0  0  0
 26 27  1  0  0  0
 26 55  1  0  0  0
 26 56  1  0  0  0
 27 28  2  0  0  0
 27 29  1  0  0  0
 29 30  1  0  0  0
 29 31  1  0  0  0
 30 57  1  0  0  0
 30 58  1  0  0  0
 30 59  1  0  0  0
 31 60  1  0  0  0
 31 61  1  0  0  0
 31 62  1  0  0  0
M  CHG  1  23   1
M  END
> <s_m_source_file>
/home/yujie/leadopt/data/result/selection/CDK9/lig_24.sdf

> <i_m_source_file_index>
1

> <i_lp_mmshare_version>
51139

> <i_f3d_flags>
0

> <s_epik_input>
W0NIM11bQ0hdKFtDSDNdKW4xW2NIXWMoW2NIXVtjSF1jMT1PKS1jKFtjSF1bY0hdbjIpYyhjMjMpW2NIXWMoW25IXTMpW0NIXTRbQ0gyXVtDSDJdTihbQ0gyXVtDSDJdNClbQ0gyXUMoPU8pTihbQ0gzXSlbQ0gzXQ==

> <s_epik_cmdline>
J2VwaWtfcHl0aG9uJywgJy1waHQnLCAnMi4wJywgJy1waCcsICc3LjAnLCAnLXRuJywgJzgnLCAnLW1hJywgJzIwMCcsICctaW1hZScsICc8aW5maWxlLm1hZT4nLCAnLW9tYWUnLCAnPG91dGZpbGUubWFlPic=

> <r_lp_tautomer_probability>
0.999998

> <r_epik_Ionization_Penalty>
  0.0792

> <r_epik_Ionization_Penalty_Charging>
  0.0781

> <r_epik_Ionization_Penalty_Neutral>
  0.0011

> <r_epik_State_Penalty>
  0.0690

> <r_epik_Charging_Adjusted_Penalty>
0.147047

> <i_epik_Tot_Q>
1

> <i_epik_Tot_abs_Q>
1

> <s_lp_Force_Field>
OPLS3e

> <r_lp_Energy>
62.1433

> <b_lp_Chiralities_Consistent>
1

> <s_lp_Variant>
/home/yujie/leadopt/data/result/selection/CDK9/lig_24.sdf:1-1

> <s_i_glide_gridfile>
glide-grid_CDK9

> <i_i_glide_lignum>
1

> <i_i_glide_rotatable_bonds>
6

> <r_i_docking_score>
-9.19969020078379

> <r_i_glide_ligand_efficiency>
-0.296764200025284

> <r_i_glide_ligand_efficiency_sa>
-0.932249315214725

> <r_i_glide_ligand_efficiency_ln>
-2.07481207692209

> <r_i_glide_gscore>
-9.26867240078379

> <r_i_glide_lipo>
-3.08692572127256

> <r_i_glide_hbond>
-0.617386823084829

> <r_i_glide_metal>
-0

> <r_i_glide_rewards>
-2.03871609964444

> <r_i_glide_evdw>
-43.7690467834473

> <r_i_glide_ecoul>
-9.9042272567749

> <r_i_glide_erotb>
0.310692547007208

> <r_i_glide_esite>
-0.162249876100576

> <r_i_glide_emodel>
-88.5238037538238

> <r_i_glide_energy>
-53.6732740402222

> <r_i_glide_einternal>
2.2912814617157

> <i_i_glide_confnum>
6

> <i_i_glide_posenum>
262

> <r_i_glide_eff_state_penalty>
0.0689822

$$$$
