/home/yujie/leadopt/data/result/selection/CDK9/lig_33.sdf:1
                    3D
 Schrodinger Suite 2020-3.
 62 65  0  0  1  0            999 V2000
  -42.0529  -34.8326   -0.8200 C   0  0  0  0  0  0
  -41.5621  -34.2320   -2.1572 C   0  0  0  0  0  0
  -42.7474  -33.8811   -3.0803 C   0  0  0  0  0  0
  -40.5123  -35.0127   -2.8696 N   0  0  0  0  0  0
  -40.3808  -36.3888   -2.7756 C   0  0  0  0  0  0
  -39.3614  -37.1142   -3.2936 C   0  0  0  0  0  0
  -38.3304  -36.3242   -3.9288 C   0  0  0  0  0  0
  -38.4298  -35.0462   -4.0650 N   0  0  0  0  0  0
  -39.5574  -34.3217   -3.6170 C   0  0  0  0  0  0
  -39.7203  -33.1206   -3.8555 O   0  0  0  0  0  0
  -39.2773  -38.6100   -3.2186 C   0  0  0  0  0  0
  -38.0291  -39.2570   -3.2256 C   0  0  0  0  0  0
  -37.9374  -40.6435   -3.1366 C   0  0  0  0  0  0
  -38.9974  -41.4888   -3.0577 N   0  0  0  0  0  0
  -40.1826  -40.8757   -3.0565 C   0  0  0  0  0  0
  -40.4092  -39.4667   -3.1325 C   0  0  0  0  0  0
  -41.8363  -39.3115   -3.1125 C   0  0  0  0  0  0
  -42.4135  -40.5575   -2.9331 C   0  0  0  0  0  0
  -41.4029  -41.4935   -2.9199 N   0  0  0  0  0  0
  -43.8743  -40.9231   -2.7466 C   0  0  1  0  0  0
  -44.2204  -42.4090   -2.9828 C   0  0  0  0  0  0
  -45.7343  -42.6701   -2.8497 C   0  0  0  0  0  0
  -46.2240  -42.1869   -1.4567 N   0  3  1  0  0  0
  -45.8901  -40.6897   -1.2418 C   0  0  0  0  0  0
  -44.3756  -40.4890   -1.3577 C   0  0  0  0  0  0
  -47.7581  -42.3750   -1.2530 C   0  0  0  0  0  0
  -48.1538  -43.8641   -1.2731 C   0  0  0  0  0  0
  -48.3877  -44.3576   -2.3778 O   0  0  0  0  0  0
  -48.2497  -44.5759   -0.1194 N   0  0  0  0  0  0
  -48.6781  -45.9775   -0.1289 C   0  0  0  0  0  0
  -47.9186  -44.0765    1.2201 C   0  0  0  0  0  0
  -41.5809  -42.4834   -2.7820 H   0  0  0  0  0  0
  -42.7480  -34.1483   -0.3299 H   0  0  0  0  0  0
  -42.5991  -35.7680   -0.9458 H   0  0  0  0  0  0
  -41.2299  -34.9907   -0.1219 H   0  0  0  0  0  0
  -41.1151  -33.2782   -1.8721 H   0  0  0  0  0  0
  -43.5465  -33.3918   -2.5243 H   0  0  0  0  0  0
  -42.4480  -33.1761   -3.8564 H   0  0  0  0  0  0
  -43.1785  -34.7681   -3.5455 H   0  0  0  0  0  0
  -41.2197  -36.8389   -2.2731 H   0  0  0  0  0  0
  -37.4216  -36.7763   -4.3104 H   0  0  0  0  0  0
  -37.1087  -38.6947   -3.2658 H   0  0  0  0  0  0
  -36.9564  -41.0936   -3.1229 H   0  0  0  0  0  0
  -42.4072  -38.3979   -3.1822 H   0  0  0  0  0  0
  -44.4469  -40.3507   -3.4783 H   0  0  0  0  0  0
  -43.7024  -43.0511   -2.2681 H   0  0  0  0  0  0
  -43.9287  -42.6940   -3.9921 H   0  0  0  0  0  0
  -45.9356  -43.7409   -2.9138 H   0  0  0  0  0  0
  -46.3209  -42.1442   -3.6057 H   0  0  0  0  0  0
  -46.4383  -40.1146   -1.9888 H   0  0  0  0  0  0
  -46.2341  -40.3927   -0.2567 H   0  0  0  0  0  0
  -44.1878  -39.4263   -1.2034 H   0  0  0  0  0  0
  -43.8717  -41.0480   -0.5671 H   0  0  0  0  0  0
  -48.2471  -41.8332   -2.0646 H   0  0  0  0  0  0
  -48.0322  -41.8810   -0.3219 H   0  0  0  0  0  0
  -49.0873  -46.2931   -1.0912 H   0  0  0  0  0  0
  -49.4439  -46.1527    0.6293 H   0  0  0  0  0  0
  -47.8289  -46.6267    0.0835 H   0  0  0  0  0  0
  -47.4475  -43.0962    1.2309 H   0  0  0  0  0  0
  -48.8207  -44.0218    1.8292 H   0  0  0  0  0  0
  -47.2304  -44.7609    1.7185 H   0  0  0  0  0  0
  -45.7325  -42.7230   -0.7535 H   0  0  0  0  0  0
  1  2  1  0  0  0
  1 33  1  0  0  0
  1 34  1  0  0  0
  1 35  1  0  0  0
  2  3  1  0  0  0
  2  4  1  0  0  0
  2 36  1  0  0  0
  3 37  1  0  0  0
  3 38  1  0  0  0
  3 39  1  0  0  0
  4  9  1  0  0  0
  4  5  1  0  0  0
  5  6  2  0  0  0
  5 40  1  0  0  0
  6  7  1  0  0  0
  6 11  1  0  0  0
  7  8  2  0  0  0
  7 41  1  0  0  0
  8  9  1  0  0  0
  9 10  2  0  0  0
 11 16  1  0  0  0
 11 12  2  0  0  0
 12 13  1  0  0  0
 12 42  1  0  0  0
 13 14  2  0  0  0
 13 43  1  0  0  0
 14 15  1  0  0  0
 15 19  1  0  0  0
 15 16  2  0  0  0
 16 17  1  0  0  0
 17 18  2  0  0  0
 17 44  1  0  0  0
 18 19  1  0  0  0
 18 20  1  0  0  0
 19 32  1  0  0  0
 20 25  1  0  0  0
 20 21  1  0  0  0
 20 45  1  0  0  0
 21 22  1  0  0  0
 21 46  1  0  0  0
 21 47  1  0  0  0
 22 23  1  0  0  0
 22 48  1  0  0  0
 22 49  1  0  0  0
 23 24  1  0  0  0
 23 26  1  0  0  0
 23 62  1  0  0  0
 24 25  1  0  0  0
 24 50  1  0  0  0
 24 51  1  0  0  0
 25 52  1  0  0  0
 25 53  1  0  0  0
 26 27  1  0  0  0
 26 54  1  0  0  0
 26 55  1  0  0  0
 27 28  2  0  0  0
 27 29  1  0  0  0
 29 30  1  0  0  0
 29 31  1  0  0  0
 30 56  1  0  0  0
 30 57  1  0  0  0
 30 58  1  0  0  0
 31 59  1  0  0  0
 31 60  1  0  0  0
 31 61  1  0  0  0
M  CHG  1  23   1
M  END
> <s_m_source_file>
/home/yujie/leadopt/data/result/selection/CDK9/lig_33.sdf

> <i_m_source_file_index>
1

> <i_lp_mmshare_version>
51139

> <i_f3d_flags>
0

> <s_epik_input>
W0NIM11bQ0hdKFtDSDNdKW4xW2NIXWMoW2NIXW5jMT1PKS1jKFtjSF1bY0hdbjIpYyhjMjMpW2NIXWMoW25IXTMpW0NIXTRbQ0gyXVtDSDJdTihbQ0gyXVtDSDJdNClbQ0gyXUMoPU8pTihbQ0gzXSlbQ0gzXQ==

> <s_epik_cmdline>
J2VwaWtfcHl0aG9uJywgJy1waHQnLCAnMi4wJywgJy1waCcsICc3LjAnLCAnLXRuJywgJzgnLCAnLW1hJywgJzIwMCcsICctaW1hZScsICc8aW5maWxlLm1hZT4nLCAnLW9tYWUnLCAnPG91dGZpbGUubWFlPic=

> <r_lp_tautomer_probability>
0.999998

> <r_epik_Ionization_Penalty>
  0.0783

> <r_epik_Ionization_Penalty_Charging>
  0.0781

> <r_epik_Ionization_Penalty_Neutral>
  0.0002

> <r_epik_State_Penalty>
  0.0690

> <r_epik_Charging_Adjusted_Penalty>
0.147045

> <i_epik_Tot_Q>
1

> <i_epik_Tot_abs_Q>
1

> <s_lp_Force_Field>
OPLS3e

> <r_lp_Energy>
71.1763

> <b_lp_Chiralities_Consistent>
1

> <s_lp_Variant>
/home/yujie/leadopt/data/result/selection/CDK9/lig_33.sdf:1-1

> <s_i_glide_gridfile>
glide-grid_CDK9

> <i_i_glide_lignum>
1

> <i_i_glide_rotatable_bonds>
6

> <r_i_docking_score>
-8.80235325966281

> <r_i_glide_ligand_efficiency>
-0.283946879343962

> <r_i_glide_ligand_efficiency_sa>
-0.891985232057012

> <r_i_glide_ligand_efficiency_ln>
-1.98520041978445

> <r_i_glide_gscore>
-8.87133545966281

> <r_i_glide_lipo>
-2.43825323050938

> <r_i_glide_hbond>
-0.746074916266386

> <r_i_glide_metal>
-0

> <r_i_glide_rewards>
-2.12714276931339

> <r_i_glide_evdw>
-46.2496452331543

> <r_i_glide_ecoul>
-10.1378011703491

> <r_i_glide_erotb>
0.309382727657565

> <r_i_glide_esite>
-0.0360948340211372

> <r_i_glide_emodel>
-87.98989487336

> <r_i_glide_energy>
-56.3874464035034

> <r_i_glide_einternal>
7.7994327545166

> <i_i_glide_confnum>
1

> <i_i_glide_posenum>
278

> <r_i_glide_eff_state_penalty>
0.0689822

$$$$
