/home/yujie/leadopt/data/result/selection/CDK9/lig_31.sdf:1
                    3D
 Schrodinger Suite 2020-3.
 64 68  0  0  1  0            999 V2000
  -49.6640  -45.2740   -0.3321 C   0  0  0  0  0  0
  -48.9222  -45.6010   -1.5536 N   0  0  0  0  0  0
  -49.1557  -46.9723   -2.0215 C   0  0  0  0  0  0
  -48.0295  -44.7802   -2.1693 C   0  0  0  0  0  0
  -47.4939  -45.0909   -3.2355 O   0  0  0  0  0  0
  -47.6746  -43.4177   -1.5236 C   0  0  0  0  0  0
  -46.2286  -42.9680   -1.8909 N   0  3  2  0  0  0
  -45.6928  -41.9980   -0.8095 C   0  0  0  0  0  0
  -44.2279  -41.6484   -1.1192 C   0  0  0  0  0  0
  -44.0784  -41.0094   -2.5169 C   0  0  2  0  0  0
  -44.6743  -41.9569   -3.5846 C   0  0  0  0  0  0
  -46.1457  -42.2974   -3.2865 C   0  0  0  0  0  0
  -42.6498  -40.5780   -2.8054 C   0  0  0  0  0  0
  -42.0983  -39.3274   -3.0567 C   0  0  0  0  0  0
  -40.6724  -39.4765   -3.1823 C   0  0  0  0  0  0
  -39.5552  -38.6320   -3.4044 C   0  0  0  0  0  0
  -38.2982  -39.2536   -3.4568 C   0  0  0  0  0  0
  -38.1863  -40.6345   -3.3118 C   0  0  0  0  0  0
  -39.2322  -41.4742   -3.1146 N   0  0  0  0  0  0
  -40.4213  -40.8721   -3.0558 C   0  0  0  0  0  0
  -41.6229  -41.4930   -2.8256 N   0  0  0  0  0  0
  -39.6532  -37.1623   -3.5813 C   0  0  0  0  0  0
  -38.7498  -36.4457   -4.4749 C   0  0  0  0  0  0
  -38.8177  -35.1019   -4.5806 C   0  0  0  0  0  0
  -39.7286  -34.2874   -3.7884 C   0  0  0  0  0  0
  -39.6292  -33.0608   -3.8618 O   0  0  0  0  0  0
  -40.6197  -34.9937   -2.9959 N   0  0  0  0  0  0
  -40.5315  -36.3768   -2.9131 C   0  0  0  0  0  0
  -41.5489  -34.1749   -2.1804 C   0  0  0  0  0  0
  -42.5814  -33.3084   -2.9324 C   0  0  0  0  0  0
  -43.5025  -33.5265   -1.7224 C   0  0  0  0  0  0
  -42.7689  -34.8628   -1.5306 C   0  0  0  0  0  0
  -41.7662  -42.4837   -2.6569 H   0  0  0  0  0  0
  -49.2507  -45.8202    0.5172 H   0  0  0  0  0  0
  -50.7097  -45.5676   -0.4392 H   0  0  0  0  0  0
  -49.6681  -44.2125   -0.0872 H   0  0  0  0  0  0
  -50.2191  -47.1431   -2.1842 H   0  0  0  0  0  0
  -48.6401  -47.2016   -2.9545 H   0  0  0  0  0  0
  -48.8092  -47.6878   -1.2761 H   0  0  0  0  0  0
  -48.3448  -42.6182   -1.8402 H   0  0  0  0  0  0
  -47.6986  -43.4838   -0.4360 H   0  0  0  0  0  0
  -46.3425  -41.1196   -0.7927 H   0  0  0  0  0  0
  -45.7813  -42.5112    0.1433 H   0  0  0  0  0  0
  -43.8872  -40.9552   -0.3491 H   0  0  0  0  0  0
  -43.6376  -42.5640   -1.0459 H   0  0  0  0  0  0
  -44.7082  -40.1175   -2.5146 H   0  0  0  0  0  0
  -44.1112  -42.8908   -3.6264 H   0  0  0  0  0  0
  -44.6585  -41.4939   -4.5697 H   0  0  0  0  0  0
  -46.5461  -42.9884   -4.0277 H   0  0  0  0  0  0
  -46.7775  -41.4066   -3.2610 H   0  0  0  0  0  0
  -42.6671  -38.4112   -3.1117 H   0  0  0  0  0  0
  -37.3988  -38.6711   -3.5998 H   0  0  0  0  0  0
  -37.2137  -41.0973   -3.3529 H   0  0  0  0  0  0
  -38.0413  -36.9895   -5.0845 H   0  0  0  0  0  0
  -38.1505  -34.5887   -5.2539 H   0  0  0  0  0  0
  -41.2045  -36.7832   -2.1742 H   0  0  0  0  0  0
  -40.9600  -33.6022   -1.4575 H   0  0  0  0  0  0
  -42.2783  -32.2779   -3.1268 H   0  0  0  0  0  0
  -42.9612  -33.7529   -3.8554 H   0  0  0  0  0  0
  -43.3452  -32.8112   -0.9099 H   0  0  0  0  0  0
  -44.5680  -33.5946   -1.9417 H   0  0  0  0  0  0
  -43.2117  -35.6743   -2.1139 H   0  0  0  0  0  0
  -42.6310  -35.1974   -0.5005 H   0  0  0  0  0  0
  -45.6394  -43.7972   -1.8858 H   0  0  0  0  0  0
  1  2  1  0  0  0
  1 34  1  0  0  0
  1 35  1  0  0  0
  1 36  1  0  0  0
  2  3  1  0  0  0
  2  4  1  0  0  0
  3 37  1  0  0  0
  3 38  1  0  0  0
  3 39  1  0  0  0
  4  5  2  0  0  0
  4  6  1  0  0  0
  6  7  1  0  0  0
  6 40  1  0  0  0
  6 41  1  0  0  0
  7 12  1  0  0  0
  7  8  1  0  0  0
  7 64  1  0  0  0
  8  9  1  0  0  0
  8 42  1  0  0  0
  8 43  1  0  0  0
  9 10  1  0  0  0
  9 44  1  0  0  0
  9 45  1  0  0  0
 10 11  1  0  0  0
 10 13  1  0  0  0
 10 46  1  0  0  0
 11 12  1  0  0  0
 11 47  1  0  0  0
 11 48  1  0  0  0
 12 49  1  0  0  0
 12 50  1  0  0  0
 13 21  1  0  0  0
 13 14  2  0  0  0
 14 15  1  0  0  0
 14 51  1  0  0  0
 15 20  2  0  0  0
 15 16  1  0  0  0
 16 17  2  0  0  0
 16 22  1  0  0  0
 17 18  1  0  0  0
 17 52  1  0  0  0
 18 19  2  0  0  0
 18 53  1  0  0  0
 19 20  1  0  0  0
 20 21  1  0  0  0
 21 33  1  0  0  0
 22 28  2  0  0  0
 22 23  1  0  0  0
 23 24  2  0  0  0
 23 54  1  0  0  0
 24 25  1  0  0  0
 24 55  1  0  0  0
 25 26  2  0  0  0
 25 27  1  0  0  0
 27 28  1  0  0  0
 27 29  1  0  0  0
 28 56  1  0  0  0
 29 32  1  0  0  0
 29 30  1  0  0  0
 29 57  1  0  0  0
 30 31  1  0  0  0
 30 58  1  0  0  0
 30 59  1  0  0  0
 31 32  1  0  0  0
 31 60  1  0  0  0
 31 61  1  0  0  0
 32 62  1  0  0  0
 32 63  1  0  0  0
M  CHG  1   7   1
M  END
> <s_m_source_file>
/home/yujie/leadopt/data/result/selection/CDK9/lig_31.sdf

> <i_m_source_file_index>
1

> <i_lp_mmshare_version>
51139

> <i_f3d_flags>
0

> <s_epik_input>
W0NIM11OKFtDSDNdKUMoPU8pW0NIMl1OMVtDSDJdW0NIMl1bQ0hdKFtDSDJdW0NIMl0xKWMoW2NIXTIpW25IXWMoYzIzKW5bY0hdW2NIXWMzLWM0W2NIXVtjSF1jKD1PKW4oW2NIXTQpW0NIXTVbQ0gyXVtDSDJdW0NIMl01

> <s_epik_cmdline>
J2VwaWtfcHl0aG9uJywgJy1waHQnLCAnMi4wJywgJy1waCcsICc3LjAnLCAnLXRuJywgJzgnLCAnLW1hJywgJzIwMCcsICctaW1hZScsICc8aW5maWxlLm1hZT4nLCAnLW9tYWUnLCAnPG91dGZpbGUubWFlPic=

> <r_lp_tautomer_probability>
0.999998

> <r_epik_Ionization_Penalty>
  0.0792

> <r_epik_Ionization_Penalty_Charging>
  0.0781

> <r_epik_Ionization_Penalty_Neutral>
  0.0011

> <r_epik_State_Penalty>
  0.0690

> <r_epik_Charging_Adjusted_Penalty>
0.147046

> <i_epik_Tot_Q>
1

> <i_epik_Tot_abs_Q>
1

> <s_lp_Force_Field>
OPLS3e

> <r_lp_Energy>
75.7789

> <b_lp_Chiralities_Consistent>
1

> <s_lp_Variant>
/home/yujie/leadopt/data/result/selection/CDK9/lig_31.sdf:1-1

> <s_i_glide_gridfile>
glide-grid_CDK9

> <i_i_glide_lignum>
1

> <i_i_glide_rotatable_bonds>
6

> <r_i_docking_score>
-8.89811072191589

> <r_i_glide_ligand_efficiency>
-0.278065960059872

> <r_i_glide_ligand_efficiency_sa>
-0.882804394011319

> <r_i_glide_ligand_efficiency_ln>
-1.99252954397446

> <r_i_glide_gscore>
-8.96709292191589

> <r_i_glide_lipo>
-2.75981452844848

> <r_i_glide_hbond>
-0.76

> <r_i_glide_metal>
-0

> <r_i_glide_rewards>
-2.03528476163125

> <r_i_glide_evdw>
-46.1594886779785

> <r_i_glide_ecoul>
-9.41336727142334

> <r_i_glide_erotb>
0.369146717167264

> <r_i_glide_esite>
-0.0611608243909994

> <r_i_glide_emodel>
-89.9164712021565

> <r_i_glide_energy>
-55.5728559494019

> <r_i_glide_einternal>
3.78427958488464

> <i_i_glide_confnum>
282

> <i_i_glide_posenum>
168

> <r_i_glide_eff_state_penalty>
0.0689822

$$$$
