/home/yujie/leadopt/data/result/selection/CDK9/lig_35.sdf:1
                    3D
 Schrodinger Suite 2020-3.
 58 62  0  0  1  0            999 V2000
  -42.1062  -34.7692   -0.8290 C   0  0  0  0  0  0
  -41.7437  -34.1551   -2.2001 C   0  0  0  0  0  0
  -43.0125  -33.8726   -3.0337 C   0  0  0  0  0  0
  -40.7202  -34.8965   -2.9872 N   0  0  0  0  0  0
  -40.5046  -36.2678   -2.8904 C   0  0  0  0  0  0
  -39.5334  -36.9765   -3.5155 C   0  0  0  0  0  0
  -38.6513  -36.1748   -4.3570 C   0  0  0  0  0  0
  -38.8378  -34.8452   -4.4826 C   0  0  0  0  0  0
  -39.9068  -34.1245   -3.8039 C   0  0  0  0  0  0
  -40.0169  -32.9127   -4.0124 O   0  0  0  0  0  0
  -39.3299  -38.4439   -3.3694 C   0  0  0  0  0  0
  -38.0298  -38.9671   -3.4568 C   0  0  0  0  0  0
  -37.8064  -40.3366   -3.3504 C   0  0  0  0  0  0
  -38.7788  -41.2600   -3.1587 N   0  0  0  0  0  0
  -40.0101  -40.7618   -3.0579 C   0  0  0  0  0  0
  -40.3709  -39.3829   -3.1346 C   0  0  0  0  0  0
  -41.7957  -39.3541   -2.9437 C   0  0  0  0  0  0
  -42.2230  -40.6460   -2.6580 C   0  0  0  0  0  0
  -41.1479  -41.4904   -2.7966 N   0  0  0  0  0  0
  -43.5662  -41.1940   -2.2235 C   0  0  0  0  0  0
  -44.5054  -40.1546   -1.5739 C   0  0  0  0  0  0
  -45.8762  -40.7416   -1.1951 C   0  0  0  0  0  0
  -46.5096  -41.3744   -2.3602 N   0  0  1  0  0  0
  -45.7045  -42.5184   -2.8054 C   0  0  0  0  0  0
  -44.2957  -42.0792   -3.2614 C   0  0  0  0  0  0
  -47.8889  -41.7727   -2.0634 C   0  0  0  0  0  0
  -48.8129  -40.5768   -1.9065 C   0  0  0  0  0  0
  -49.5770  -40.4170   -0.8517 N   0  0  0  0  0  0
  -50.2691  -39.2961   -0.8919 C   0  0  0  0  0  0
  -50.0806  -38.4990   -2.0150 C   0  0  0  0  0  0
  -48.9243  -39.2723   -3.0560 S   0  0  0  0  0  0
  -41.2297  -42.4906   -2.6453 H   0  0  0  0  0  0
  -42.7977  -34.1170   -0.2931 H   0  0  0  0  0  0
  -41.2279  -34.8829   -0.1918 H   0  0  0  0  0  0
  -42.6171  -35.7292   -0.9151 H   0  0  0  0  0  0
  -41.3277  -33.1745   -1.9457 H   0  0  0  0  0  0
  -43.7808  -33.3931   -2.4246 H   0  0  0  0  0  0
  -42.8082  -33.1878   -3.8574 H   0  0  0  0  0  0
  -43.4475  -34.7916   -3.4314 H   0  0  0  0  0  0
  -41.2168  -36.7426   -2.2357 H   0  0  0  0  0  0
  -37.8474  -36.6425   -4.9042 H   0  0  0  0  0  0
  -38.1735  -34.2774   -5.1134 H   0  0  0  0  0  0
  -37.1792  -38.3164   -3.5973 H   0  0  0  0  0  0
  -36.7992  -40.7199   -3.4191 H   0  0  0  0  0  0
  -42.4442  -38.4917   -2.9434 H   0  0  0  0  0  0
  -43.4220  -41.8909   -1.3938 H   0  0  0  0  0  0
  -44.0594  -39.7697   -0.6568 H   0  0  0  0  0  0
  -44.6977  -39.3170   -2.2466 H   0  0  0  0  0  0
  -45.8005  -41.4501   -0.3674 H   0  0  0  0  0  0
  -46.5003  -39.9209   -0.8367 H   0  0  0  0  0  0
  -45.6546  -43.2816   -2.0257 H   0  0  0  0  0  0
  -46.2047  -42.9840   -3.6562 H   0  0  0  0  0  0
  -44.4317  -41.5472   -4.2032 H   0  0  0  0  0  0
  -43.7206  -42.9872   -3.4509 H   0  0  0  0  0  0
  -48.2616  -42.4030   -2.8718 H   0  0  0  0  0  0
  -47.9021  -42.4037   -1.1725 H   0  0  0  0  0  0
  -50.9216  -39.0629   -0.0634 H   0  0  0  0  0  0
  -50.5262  -37.5457   -2.2569 H   0  0  0  0  0  0
  1  2  1  0  0  0
  1 33  1  0  0  0
  1 34  1  0  0  0
  1 35  1  0  0  0
  2  3  1  0  0  0
  2  4  1  0  0  0
  2 36  1  0  0  0
  3 37  1  0  0  0
  3 38  1  0  0  0
  3 39  1  0  0  0
  4  9  1  0  0  0
  4  5  1  0  0  0
  5  6  2  0  0  0
  5 40  1  0  0  0
  6  7  1  0  0  0
  6 11  1  0  0  0
  7  8  2  0  0  0
  7 41  1  0  0  0
  8  9  1  0  0  0
  8 42  1  0  0  0
  9 10  2  0  0  0
 11 16  1  0  0  0
 11 12  2  0  0  0
 12 13  1  0  0  0
 12 43  1  0  0  0
 13 14  2  0  0  0
 13 44  1  0  0  0
 14 15  1  0  0  0
 15 19  1  0  0  0
 15 16  2  0  0  0
 16 17  1  0  0  0
 17 18  2  0  0  0
 17 45  1  0  0  0
 18 19  1  0  0  0
 18 20  1  0  0  0
 19 32  1  0  0  0
 20 25  1  0  0  0
 20 21  1  0  0  0
 20 46  1  0  0  0
 21 22  1  0  0  0
 21 47  1  0  0  0
 21 48  1  0  0  0
 22 23  1  0  0  0
 22 49  1  0  0  0
 22 50  1  0  0  0
 23 24  1  0  0  0
 23 26  1  0  0  0
 24 25  1  0  0  0
 24 51  1  0  0  0
 24 52  1  0  0  0
 25 53  1  0  0  0
 25 54  1  0  0  0
 26 27  1  0  0  0
 26 55  1  0  0  0
 26 56  1  0  0  0
 27 31  1  0  0  0
 27 28  2  0  0  0
 28 29  1  0  0  0
 29 30  2  0  0  0
 29 57  1  0  0  0
 30 31  1  0  0  0
 30 58  1  0  0  0
M  END
> <s_m_source_file>
/home/yujie/leadopt/data/result/selection/CDK9/lig_35.sdf

> <i_m_source_file_index>
1

> <i_lp_mmshare_version>
51139

> <i_f3d_flags>
0

> <s_epik_input>
W0NIM11bQ0hdKFtDSDNdKW4xW2NIXWMoW2NIXVtjSF1jMT1PKS1jKFtjSF1bY0hdbjIpYyhjMjMpW2NIXWMoW25IXTMpW0NIXTRbQ0gyXVtDSDJdTihbQ0gyXVtDSDJdNClbQ0gyXWM1bltjSF1bY0hdczU=

> <s_epik_cmdline>
J2VwaWtfcHl0aG9uJywgJy1waHQnLCAnMi4wJywgJy1waCcsICc3LjAnLCAnLXRuJywgJzgnLCAnLW1hJywgJzIwMCcsICctaW1hZScsICc8aW5maWxlLm1hZT4nLCAnLW9tYWUnLCAnPG91dGZpbGUubWFlPic=

> <r_lp_tautomer_probability>
0.999998

> <r_epik_Ionization_Penalty>
  0.4823

> <r_epik_Ionization_Penalty_Charging>
  0.0000

> <r_epik_Ionization_Penalty_Neutral>
  0.4823

> <r_epik_State_Penalty>
  0.5072

> <r_epik_Charging_Adjusted_Penalty>
0.507175

> <i_epik_Tot_Q>
0

> <i_epik_Tot_abs_Q>
0

> <s_lp_Force_Field>
OPLS3e

> <r_lp_Energy>
57.9852

> <b_lp_Chiralities_Consistent>
1

> <s_lp_Variant>
/home/yujie/leadopt/data/result/selection/CDK9/lig_35.sdf:1-2

> <s_i_glide_gridfile>
glide-grid_CDK9

> <i_i_glide_lignum>
2

> <i_i_glide_rotatable_bonds>
5

> <r_i_docking_score>
-8.23837875759313

> <r_i_glide_ligand_efficiency>
-0.265754153470746

> <r_i_glide_ligand_efficiency_sa>
-0.834834955050051

> <r_i_glide_ligand_efficiency_ln>
-1.85800688582495

> <r_i_glide_gscore>
-8.74555175759313

> <r_i_glide_lipo>
-2.72708302729992

> <r_i_glide_hbond>
-0.5933658882476

> <r_i_glide_metal>
-0

> <r_i_glide_rewards>
-2.0532517945052

> <r_i_glide_evdw>
-47.8538551330566

> <r_i_glide_ecoul>
-8.37875843048096

> <r_i_glide_erotb>
0.296533212569584

> <r_i_glide_esite>
-0.01887773888502

> <r_i_glide_emodel>
-84.4811449287514

> <r_i_glide_energy>
-56.2326135635376

> <r_i_glide_einternal>
3.72132158279419

> <i_i_glide_confnum>
2

> <i_i_glide_posenum>
229

> <r_i_glide_eff_state_penalty>
0.507173

$$$$
