/home/yujie/leadopt/data/result/selection/CDK9/lig_18.sdf:1
                    3D
 Schrodinger Suite 2020-3.
 58 61  0  0  1  0            999 V2000
  -48.9707  -47.1223   -2.3024 C   0  0  0  0  0  0
  -48.7928  -45.7684   -1.7659 N   0  0  0  0  0  0
  -49.5717  -45.5135   -0.5507 C   0  0  0  0  0  0
  -47.9210  -44.8918   -2.3260 C   0  0  0  0  0  0
  -47.3706  -45.1267   -3.4027 O   0  0  0  0  0  0
  -47.6024  -43.5636   -1.5966 C   0  0  0  0  0  0
  -46.1600  -43.0743   -1.9195 N   0  3  2  0  0  0
  -45.6501  -42.1397   -0.7923 C   0  0  0  0  0  0
  -44.1869  -41.7433   -1.0763 C   0  0  0  0  0  0
  -44.0392  -41.0474   -2.4501 C   0  0  2  0  0  0
  -44.6028  -41.9770   -3.5501 C   0  0  0  0  0  0
  -46.0727  -42.3407   -3.2832 C   0  0  0  0  0  0
  -42.6170  -40.5856   -2.7292 C   0  0  0  0  0  0
  -42.0677  -39.3241   -2.9321 C   0  0  0  0  0  0
  -40.6456  -39.4710   -3.1101 C   0  0  0  0  0  0
  -39.5307  -38.6203   -3.3128 C   0  0  0  0  0  0
  -38.2787  -39.2379   -3.4510 C   0  0  0  0  0  0
  -38.1689  -40.6264   -3.3839 C   0  0  0  0  0  0
  -39.2120  -41.4704   -3.1850 N   0  0  0  0  0  0
  -40.3948  -40.8680   -3.0564 C   0  0  0  0  0  0
  -41.5893  -41.4935   -2.8110 N   0  0  0  0  0  0
  -39.6408  -37.1371   -3.3904 C   0  0  0  0  0  0
  -39.0827  -36.4834   -4.4971 C   0  0  0  0  0  0
  -39.1276  -35.0980   -4.6076 C   0  0  0  0  0  0
  -39.7408  -34.3430   -3.6173 C   0  0  0  0  0  0
  -40.3004  -34.9731   -2.5085 C   0  0  0  0  0  0
  -40.2475  -36.3729   -2.3723 C   0  0  0  0  0  0
  -40.7405  -37.0445   -1.2661 O   0  0  0  0  0  0
  -41.2964  -36.3108   -0.1774 C   0  0  0  0  0  0
  -39.7792  -32.9969   -3.7348 F   0  0  0  0  0  0
  -41.7278  -42.4889   -2.6713 H   0  0  0  0  0  0
  -48.3173  -47.3373   -3.1508 H   0  0  0  0  0  0
  -49.9993  -47.2679   -2.6306 H   0  0  0  0  0  0
  -48.7493  -47.8644   -1.5353 H   0  0  0  0  0  0
  -49.1261  -46.0362    0.2976 H   0  0  0  0  0  0
  -49.6528  -44.4559   -0.2986 H   0  0  0  0  0  0
  -50.5917  -45.8833   -0.6710 H   0  0  0  0  0  0
  -48.2804  -42.7575   -1.8795 H   0  0  0  0  0  0
  -47.6378  -43.6948   -0.5150 H   0  0  0  0  0  0
  -46.3156  -41.2742   -0.7479 H   0  0  0  0  0  0
  -45.7420  -42.6862    0.1431 H   0  0  0  0  0  0
  -43.8671  -41.0723   -0.2789 H   0  0  0  0  0  0
  -43.5774  -42.6483   -1.0327 H   0  0  0  0  0  0
  -44.6845  -40.1663   -2.4264 H   0  0  0  0  0  0
  -44.0261  -42.9020   -3.6067 H   0  0  0  0  0  0
  -44.5735  -41.4938   -4.5236 H   0  0  0  0  0  0
  -46.4572  -42.9950   -4.0642 H   0  0  0  0  0  0
  -46.7128  -41.4582   -3.2222 H   0  0  0  0  0  0
  -42.6252  -38.3991   -2.9179 H   0  0  0  0  0  0
  -37.3898  -38.6413   -3.6018 H   0  0  0  0  0  0
  -37.2008  -41.0936   -3.4855 H   0  0  0  0  0  0
  -38.6023  -37.0538   -5.2796 H   0  0  0  0  0  0
  -38.6821  -34.6062   -5.4562 H   0  0  0  0  0  0
  -40.7603  -34.3504   -1.7566 H   0  0  0  0  0  0
  -41.6119  -37.0063    0.6007 H   0  0  0  0  0  0
  -40.5654  -35.6325    0.2663 H   0  0  0  0  0  0
  -42.1751  -35.7410   -0.4833 H   0  0  0  0  0  0
  -45.5690  -43.9051   -1.9421 H   0  0  0  0  0  0
  1  2  1  0  0  0
  1 32  1  0  0  0
  1 33  1  0  0  0
  1 34  1  0  0  0
  2  3  1  0  0  0
  2  4  1  0  0  0
  3 35  1  0  0  0
  3 36  1  0  0  0
  3 37  1  0  0  0
  4  5  2  0  0  0
  4  6  1  0  0  0
  6  7  1  0  0  0
  6 38  1  0  0  0
  6 39  1  0  0  0
  7 12  1  0  0  0
  7  8  1  0  0  0
  7 58  1  0  0  0
  8  9  1  0  0  0
  8 40  1  0  0  0
  8 41  1  0  0  0
  9 10  1  0  0  0
  9 42  1  0  0  0
  9 43  1  0  0  0
 10 11  1  0  0  0
 10 13  1  0  0  0
 10 44  1  0  0  0
 11 12  1  0  0  0
 11 45  1  0  0  0
 11 46  1  0  0  0
 12 47  1  0  0  0
 12 48  1  0  0  0
 13 21  1  0  0  0
 13 14  2  0  0  0
 14 15  1  0  0  0
 14 49  1  0  0  0
 15 20  2  0  0  0
 15 16  1  0  0  0
 16 17  2  0  0  0
 16 22  1  0  0  0
 17 18  1  0  0  0
 17 50  1  0  0  0
 18 19  2  0  0  0
 18 51  1  0  0  0
 19 20  1  0  0  0
 20 21  1  0  0  0
 21 31  1  0  0  0
 22 27  1  0  0  0
 22 23  2  0  0  0
 23 24  1  0  0  0
 23 52  1  0  0  0
 24 25  2  0  0  0
 24 53  1  0  0  0
 25 26  1  0  0  0
 25 30  1  0  0  0
 26 27  2  0  0  0
 26 54  1  0  0  0
 27 28  1  0  0  0
 28 29  1  0  0  0
 29 55  1  0  0  0
 29 56  1  0  0  0
 29 57  1  0  0  0
M  CHG  1   7   1
M  END
> <s_m_source_file>
/home/yujie/leadopt/data/result/selection/CDK9/lig_18.sdf

> <i_m_source_file_index>
1

> <i_lp_mmshare_version>
51139

> <i_f3d_flags>
0

> <s_epik_input>
W0NIM11OKFtDSDNdKUMoPU8pW0NIMl1OMVtDSDJdW0NIMl1bQ0hdKFtDSDJdW0NIMl0xKWMoW2NIXTIpW25IXWMoYzIzKW5bY0hdW2NIXWMzLWM0W2NIXVtjSF1jKEYpW2NIXWM0T1tDSDNd

> <s_epik_cmdline>
J2VwaWtfcHl0aG9uJywgJy1waHQnLCAnMi4wJywgJy1waCcsICc3LjAnLCAnLXRuJywgJzgnLCAnLW1hJywgJzIwMCcsICctaW1hZScsICc8aW5maWxlLm1hZT4nLCAnLW9tYWUnLCAnPG91dGZpbGUubWFlPic=

> <r_lp_tautomer_probability>
0.999998

> <r_epik_Ionization_Penalty>
  0.0796

> <r_epik_Ionization_Penalty_Charging>
  0.0781

> <r_epik_Ionization_Penalty_Neutral>
  0.0015

> <r_epik_State_Penalty>
  0.0690

> <r_epik_Charging_Adjusted_Penalty>
0.147045

> <i_epik_Tot_Q>
1

> <i_epik_Tot_abs_Q>
1

> <s_lp_Force_Field>
OPLS3e

> <r_lp_Energy>
47.2127

> <b_lp_Chiralities_Consistent>
1

> <s_lp_Variant>
/home/yujie/leadopt/data/result/selection/CDK9/lig_18.sdf:1-1

> <s_i_glide_gridfile>
glide-grid_CDK9

> <i_i_glide_lignum>
1

> <i_i_glide_rotatable_bonds>
6

> <r_i_docking_score>
-8.91113348171213

> <r_i_glide_ligand_efficiency>
-0.297037782723738

> <r_i_glide_ligand_efficiency_sa>
-0.922965452929261

> <r_i_glide_ligand_efficiency_ln>
-2.02470662162094

> <r_i_glide_gscore>
-8.98011568171213

> <r_i_glide_lipo>
-3.07094341025874

> <r_i_glide_hbond>
-0.608

> <r_i_glide_metal>
-0

> <r_i_glide_rewards>
-2.11617901353198

> <r_i_glide_evdw>
-43.8030891418457

> <r_i_glide_ecoul>
-7.58720302581787

> <r_i_glide_erotb>
0.325929048122714

> <r_i_glide_esite>
-0.182687395079156

> <r_i_glide_emodel>
-83.3765713851516

> <r_i_glide_energy>
-51.3902921676636

> <r_i_glide_einternal>
1.60348606109619

> <i_i_glide_confnum>
24

> <i_i_glide_posenum>
251

> <r_i_glide_eff_state_penalty>
0.0689822

$$$$
