/home/yujie/leadopt/data/result/selection/CDK9/lig_10.sdf:1
                    3D
 Schrodinger Suite 2020-3.
 52 55  0  0  1  0            999 V2000
  -47.7790  -45.1283   -3.5317 C   0  0  0  0  0  0
  -48.4411  -44.2019   -2.5092 C   0  0  0  0  0  0
  -49.6285  -44.3578   -2.2362 O   0  0  0  0  0  0
  -47.7261  -43.2334   -1.9141 N   0  0  0  0  0  0
  -46.3509  -42.8310   -2.2048 C   0  0  1  0  0  0
  -46.2283  -41.7905   -3.3353 C   0  0  0  0  0  0
  -44.7796  -41.3397   -3.6061 C   0  0  0  0  0  0
  -43.9866  -40.9474   -2.3426 C   0  0  1  0  0  0
  -44.1339  -41.9886   -1.2118 C   0  0  0  0  0  0
  -45.6083  -42.3400   -0.9532 C   0  0  0  0  0  0
  -42.5591  -40.5471   -2.6571 C   0  0  0  0  0  0
  -41.5632  -41.4898   -2.7963 N   0  0  0  0  0  0
  -40.3608  -40.8768   -3.0565 C   0  0  0  0  0  0
  -39.1897  -41.4927   -3.2201 N   0  0  0  0  0  0
  -38.1384  -40.6590   -3.4195 C   0  0  0  0  0  0
  -38.2215  -39.2712   -3.4564 C   0  0  0  0  0  0
  -39.4618  -38.6350   -3.2937 C   0  0  0  0  0  0
  -40.5822  -39.4698   -3.0761 C   0  0  0  0  0  0
  -41.9906  -39.2980   -2.8581 C   0  0  0  0  0  0
  -39.5467  -37.1502   -3.3731 C   0  0  0  0  0  0
  -40.1436  -36.3676   -2.3603 C   0  0  0  0  0  0
  -40.1767  -34.9687   -2.5114 C   0  0  0  0  0  0
  -39.6068  -34.3562   -3.6243 C   0  0  0  0  0  0
  -39.0005  -35.1289   -4.6039 C   0  0  0  0  0  0
  -38.9788  -36.5134   -4.4831 C   0  0  0  0  0  0
  -39.6307  -33.0122   -3.7581 F   0  0  0  0  0  0
  -40.6471  -37.0204   -1.2484 O   0  0  0  0  0  0
  -41.1706  -36.2631   -0.1591 C   0  0  0  0  0  0
  -45.8070  -43.7221   -2.5263 H   0  0  0  0  0  0
  -44.5242  -40.0803   -1.9517 H   0  0  0  0  0  0
  -41.7286  -42.4839   -2.6637 H   0  0  0  0  0  0
  -47.0033  -45.7309   -3.0566 H   0  0  0  0  0  0
  -47.3325  -44.5575   -4.3452 H   0  0  0  0  0  0
  -48.5133  -45.8078   -3.9601 H   0  0  0  0  0  0
  -48.2195  -42.6582   -1.2496 H   0  0  0  0  0  0
  -46.6643  -42.1783   -4.2553 H   0  0  0  0  0  0
  -46.8165  -40.9098   -3.0656 H   0  0  0  0  0  0
  -44.2798  -42.1705   -4.1115 H   0  0  0  0  0  0
  -44.8308  -40.4726   -4.2566 H   0  0  0  0  0  0
  -43.7127  -41.6022   -0.2804 H   0  0  0  0  0  0
  -43.6270  -42.9182   -1.4796 H   0  0  0  0  0  0
  -46.1141  -41.4591   -0.5592 H   0  0  0  0  0  0
  -45.6720  -43.0937   -0.1805 H   0  0  0  0  0  0
  -37.1806  -41.1319   -3.5505 H   0  0  0  0  0  0
  -37.3246  -38.6888   -3.6219 H   0  0  0  0  0  0
  -42.5285  -38.3642   -2.8102 H   0  0  0  0  0  0
  -40.6318  -34.3328   -1.7693 H   0  0  0  0  0  0
  -38.5466  -34.6511   -5.4565 H   0  0  0  0  0  0
  -38.5032  -37.0954   -5.2609 H   0  0  0  0  0  0
  -41.4970  -36.9425    0.6295 H   0  0  0  0  0  0
  -40.4158  -35.6022    0.2706 H   0  0  0  0  0  0
  -42.0359  -35.6695   -0.4587 H   0  0  0  0  0  0
  1  2  1  0  0  0
  1 32  1  0  0  0
  1 33  1  0  0  0
  1 34  1  0  0  0
  2  3  2  0  0  0
  2  4  1  0  0  0
  4  5  1  0  0  0
  4 35  1  0  0  0
  5 29  1  0  0  0
  5 10  1  0  0  0
  5  6  1  0  0  0
  6  7  1  0  0  0
  6 36  1  0  0  0
  6 37  1  0  0  0
  7  8  1  0  0  0
  7 38  1  0  0  0
  7 39  1  0  0  0
  8 30  1  0  0  0
  8  9  1  0  0  0
  8 11  1  0  0  0
  9 10  1  0  0  0
  9 40  1  0  0  0
  9 41  1  0  0  0
 10 42  1  0  0  0
 10 43  1  0  0  0
 11 19  2  0  0  0
 11 12  1  0  0  0
 12 31  1  0  0  0
 12 13  1  0  0  0
 13 18  2  0  0  0
 13 14  1  0  0  0
 14 15  2  0  0  0
 15 16  1  0  0  0
 15 44  1  0  0  0
 16 17  2  0  0  0
 16 45  1  0  0  0
 17 18  1  0  0  0
 17 20  1  0  0  0
 18 19  1  0  0  0
 19 46  1  0  0  0
 20 25  1  0  0  0
 20 21  2  0  0  0
 21 22  1  0  0  0
 21 27  1  0  0  0
 22 23  2  0  0  0
 22 47  1  0  0  0
 23 24  1  0  0  0
 23 26  1  0  0  0
 24 25  2  0  0  0
 24 48  1  0  0  0
 25 49  1  0  0  0
 27 28  1  0  0  0
 28 50  1  0  0  0
 28 51  1  0  0  0
 28 52  1  0  0  0
M  END
> <s_m_source_file>
/home/yujie/leadopt/data/result/selection/CDK9/lig_10.sdf

> <i_m_source_file_index>
1

> <i_lp_mmshare_version>
51139

> <i_f3d_flags>
0

> <s_epik_input>
W0NIM11DKD1PKVtOSF1bQ0BIXTFbQ0gyXVtDSDJdW0NAQEhdKFtDSDJdW0NIMl0xKWMoW25IXTIpW2NIXWMoYzIzKWMoW2NIXVtjSF1uMyktYzRjKE9bQ0gzXSlbY0hdYyhGKVtjSF1bY0hdNA==

> <s_epik_cmdline>
J2VwaWtfcHl0aG9uJywgJy1waHQnLCAnMi4wJywgJy1waCcsICc3LjAnLCAnLXRuJywgJzgnLCAnLW1hJywgJzIwMCcsICctaW1hZScsICc8aW5maWxlLm1hZT4nLCAnLW9tYWUnLCAnPG91dGZpbGUubWFlPic=

> <r_lp_tautomer_probability>
0.999998

> <r_epik_Ionization_Penalty>
  0.0028

> <r_epik_Ionization_Penalty_Charging>
  0.0000

> <r_epik_Ionization_Penalty_Neutral>
  0.0028

> <r_epik_State_Penalty>
  0.0019

> <r_epik_Charging_Adjusted_Penalty>
0.00193871

> <i_epik_Tot_Q>
0

> <i_epik_Tot_abs_Q>
0

> <s_lp_Force_Field>
OPLS3e

> <r_lp_Energy>
34.4006

> <b_lp_Chiralities_Consistent>
1

> <s_lp_Variant>
/home/yujie/leadopt/data/result/selection/CDK9/lig_10.sdf:1-1

> <s_i_glide_gridfile>
glide-grid_CDK9

> <i_i_glide_lignum>
1

> <i_i_glide_rotatable_bonds>
5

> <r_i_docking_score>
-7.87379367928006

> <r_i_glide_ligand_efficiency>
-0.281206917117145

> <r_i_glide_ligand_efficiency_sa>
-0.853909822384608

> <r_i_glide_ligand_efficiency_ln>
-1.81750276580586

> <r_i_glide_gscore>
-7.87573238928006

> <r_i_glide_lipo>
-3.14981658562162

> <r_i_glide_hbond>
-0.608

> <r_i_glide_metal>
-0

> <r_i_glide_rewards>
-0.883296495003116

> <r_i_glide_evdw>
-42.5458602905273

> <r_i_glide_ecoul>
-8.28896331787109

> <r_i_glide_erotb>
0.280162701438575

> <r_i_glide_esite>
-0.144144497886865

> <r_i_glide_emodel>
-69.4082870809813

> <r_i_glide_energy>
-50.8348236083984

> <r_i_glide_einternal>
4.32144832611084

> <i_i_glide_confnum>
12

> <i_i_glide_posenum>
230

> <r_i_glide_eff_state_penalty>
0.00193871

$$$$
