/home/yujie/leadopt/data/result/selection/CDK9/lig_12.sdf:1
                    3D
 Schrodinger Suite 2020-3.
 57 61  0  0  1  0            999 V2000
  -41.0465  -36.5762    0.1253 C   0  0  0  0  0  0
  -40.4301  -37.2124   -0.9943 O   0  0  0  0  0  0
  -40.1502  -36.4947   -2.1434 C   0  0  0  0  0  0
  -40.4033  -35.1261   -2.2482 C   0  0  0  0  0  0
  -40.2351  -34.4397   -3.4527 C   0  0  0  0  0  0
  -39.6282  -35.1106   -4.5199 C   0  0  0  0  0  0
  -39.3056  -36.4587   -4.4160 C   0  0  0  0  0  0
  -39.6150  -37.1704   -3.2548 C   0  0  0  0  0  0
  -39.4379  -38.6369   -3.2501 C   0  0  0  0  0  0
  -38.1885  -39.2353   -3.4567 C   0  0  0  0  0  0
  -38.0806  -40.6268   -3.4428 C   0  0  0  0  0  0
  -39.1202  -41.4774   -3.2352 N   0  0  0  0  0  0
  -40.2995  -40.8796   -3.0566 C   0  0  0  0  0  0
  -40.5446  -39.4871   -3.0584 C   0  0  0  0  0  0
  -41.9574  -39.3244   -2.8502 C   0  0  0  0  0  0
  -42.5110  -40.5803   -2.6549 C   0  0  0  0  0  0
  -41.4939  -41.4936   -2.7865 N   0  0  0  0  0  0
  -43.9183  -41.0390   -2.3134 C   0  0  0  0  0  0
  -44.9965  -39.9262   -2.2706 C   0  0  0  0  0  0
  -46.4263  -40.4720   -2.0849 C   0  0  0  0  0  0
  -46.6742  -41.5250   -3.0101 O   0  0  0  0  0  0
  -45.8725  -42.6719   -2.7540 C   0  0  0  0  0  0
  -44.3870  -42.3487   -3.0023 C   0  0  0  0  0  0
  -40.6844  -33.0097   -3.6377 C   0  0  0  0  0  0
  -40.0295  -32.2924   -4.3873 O   0  0  0  0  0  0
  -41.8172  -32.5476   -3.0563 N   0  0  0  0  0  0
  -42.2725  -31.1763   -3.3220 C   0  0  0  0  0  0
  -43.3185  -30.9604   -2.2457 C   0  0  0  0  0  0
  -43.8924  -32.3541   -2.0104 C   0  0  0  0  0  0
  -42.6689  -33.2366   -2.0762 C   0  0  0  0  0  0
  -41.6433  -42.4894   -2.6582 H   0  0  0  0  0  0
  -41.1897  -37.3033    0.9231 H   0  0  0  0  0  0
  -40.4280  -35.7735    0.5290 H   0  0  0  0  0  0
  -42.0284  -36.1755   -0.1314 H   0  0  0  0  0  0
  -40.7583  -34.6035   -1.3816 H   0  0  0  0  0  0
  -39.4452  -34.6045   -5.4566 H   0  0  0  0  0  0
  -38.8823  -36.9684   -5.2698 H   0  0  0  0  0  0
  -37.3100  -38.6258   -3.6174 H   0  0  0  0  0  0
  -37.1183  -41.0917   -3.5962 H   0  0  0  0  0  0
  -42.5044  -38.3950   -2.7950 H   0  0  0  0  0  0
  -43.9382  -41.3593   -1.2686 H   0  0  0  0  0  0
  -44.7959  -39.2148   -1.4674 H   0  0  0  0  0  0
  -45.0035  -39.4042   -3.2293 H   0  0  0  0  0  0
  -46.5797  -40.8177   -1.0596 H   0  0  0  0  0  0
  -47.1560  -39.6787   -2.2498 H   0  0  0  0  0  0
  -46.0249  -43.0283   -1.7324 H   0  0  0  0  0  0
  -46.1960  -43.4822   -3.4084 H   0  0  0  0  0  0
  -44.2874  -42.2326   -4.0822 H   0  0  0  0  0  0
  -43.7977  -43.2053   -2.6708 H   0  0  0  0  0  0
  -42.7404  -31.1178   -4.3062 H   0  0  0  0  0  0
  -41.4736  -30.4409   -3.2081 H   0  0  0  0  0  0
  -44.0291  -30.1906   -2.5324 H   0  0  0  0  0  0
  -42.8297  -30.5943   -1.3420 H   0  0  0  0  0  0
  -44.4320  -32.4558   -1.0686 H   0  0  0  0  0  0
  -44.5481  -32.6934   -2.8131 H   0  0  0  0  0  0
  -42.1924  -33.2128   -1.0949 H   0  0  0  0  0  0
  -42.9280  -34.2548   -2.3700 H   0  0  0  0  0  0
  1  2  1  0  0  0
  1 32  1  0  0  0
  1 33  1  0  0  0
  1 34  1  0  0  0
  2  3  1  0  0  0
  3  8  1  0  0  0
  3  4  2  0  0  0
  4  5  1  0  0  0
  4 35  1  0  0  0
  5  6  2  0  0  0
  5 24  1  0  0  0
  6  7  1  0  0  0
  6 36  1  0  0  0
  7  8  2  0  0  0
  7 37  1  0  0  0
  8  9  1  0  0  0
  9 14  1  0  0  0
  9 10  2  0  0  0
 10 11  1  0  0  0
 10 38  1  0  0  0
 11 12  2  0  0  0
 11 39  1  0  0  0
 12 13  1  0  0  0
 13 17  1  0  0  0
 13 14  2  0  0  0
 14 15  1  0  0  0
 15 16  2  0  0  0
 15 40  1  0  0  0
 16 17  1  0  0  0
 16 18  1  0  0  0
 17 31  1  0  0  0
 18 23  1  0  0  0
 18 19  1  0  0  0
 18 41  1  0  0  0
 19 20  1  0  0  0
 19 42  1  0  0  0
 19 43  1  0  0  0
 20 21  1  0  0  0
 20 44  1  0  0  0
 20 45  1  0  0  0
 21 22  1  0  0  0
 22 23  1  0  0  0
 22 46  1  0  0  0
 22 47  1  0  0  0
 23 48  1  0  0  0
 23 49  1  0  0  0
 24 25  2  0  0  0
 24 26  1  0  0  0
 26 30  1  0  0  0
 26 27  1  0  0  0
 27 28  1  0  0  0
 27 50  1  0  0  0
 27 51  1  0  0  0
 28 29  1  0  0  0
 28 52  1  0  0  0
 28 53  1  0  0  0
 29 30  1  0  0  0
 29 54  1  0  0  0
 29 55  1  0  0  0
 30 56  1  0  0  0
 30 57  1  0  0  0
M  END
> <s_m_source_file>
/home/yujie/leadopt/data/result/selection/CDK9/lig_12.sdf

> <i_m_source_file_index>
1

> <i_lp_mmshare_version>
51139

> <i_f3d_flags>
0

> <s_epik_input>
W0NIMl0xW0NIMl1bQ0gyXVtDSDJdTjFDKD1PKWMoW2NIXWMyT1tDSDNdKVtjSF1bY0hdYzItYyhbY0hdW2NIXW4zKWMoYzM0KVtjSF1jKFtuSF00KVtDSF01W0NIMl1bQ0gyXU9bQ0gyXVtDSDJdNQ==

> <s_epik_cmdline>
J2VwaWtfcHl0aG9uJywgJy1waHQnLCAnMi4wJywgJy1waCcsICc3LjAnLCAnLXRuJywgJzgnLCAnLW1hJywgJzIwMCcsICctaW1hZScsICc8aW5maWxlLm1hZT4nLCAnLW9tYWUnLCAnPG91dGZpbGUubWFlPic=

> <r_lp_tautomer_probability>
0.999998

> <r_epik_Ionization_Penalty>
  0.0034

> <r_epik_Ionization_Penalty_Charging>
  0.0000

> <r_epik_Ionization_Penalty_Neutral>
  0.0034

> <r_epik_State_Penalty>
  0.0024

> <r_epik_Charging_Adjusted_Penalty>
0.00237637

> <i_epik_Tot_Q>
0

> <i_epik_Tot_abs_Q>
0

> <s_lp_Force_Field>
OPLS3e

> <r_lp_Energy>
46.4622

> <b_lp_Chiralities_Consistent>
1

> <s_lp_Variant>
/home/yujie/leadopt/data/result/selection/CDK9/lig_12.sdf:1-1

> <s_i_glide_gridfile>
glide-grid_CDK9

> <i_i_glide_lignum>
1

> <i_i_glide_rotatable_bonds>
5

> <r_i_docking_score>
-9.3114110512693

> <r_i_glide_ligand_efficiency>
-0.310380368375643

> <r_i_glide_ligand_efficiency_sa>
-0.964423968733333

> <r_i_glide_ligand_efficiency_ln>
-2.11565404679777

> <r_i_glide_gscore>
-9.3137874212693

> <r_i_glide_lipo>
-2.86021046731564

> <r_i_glide_hbond>
-0.76

> <r_i_glide_metal>
-0

> <r_i_glide_rewards>
-2.09865274544984

> <r_i_glide_evdw>
-38.8029899597168

> <r_i_glide_ecoul>
-12.0929861068726

> <r_i_glide_erotb>
0.334682036254152

> <r_i_glide_esite>
-0.175508830741245

> <r_i_glide_emodel>
-75.1337132502435

> <r_i_glide_energy>
-50.8959760665894

> <r_i_glide_einternal>
3.46098494529724

> <i_i_glide_confnum>
62

> <i_i_glide_posenum>
363

> <r_i_glide_eff_state_penalty>
0.00237637

$$$$
