/home/yujie/leadopt/data/result/selection/CDK9/lig_27.sdf:1
                    3D
 Schrodinger Suite 2020-3.
 63 66  0  0  1  0            999 V2000
  -49.6561  -44.2991    0.8446 C   0  0  0  0  0  0
  -49.4812  -43.5806   -0.4216 N   0  0  0  0  0  0
  -50.7489  -43.3143   -1.1077 C   0  0  0  0  0  0
  -48.2566  -43.1948   -0.8715 C   0  0  0  0  0  0
  -47.2302  -43.4941   -0.2558 O   0  0  0  0  0  0
  -48.1754  -42.3758   -2.2008 C   0  0  0  0  0  0
  -46.8523  -41.8166   -2.5561 N   0  0  2  0  0  0
  -46.4022  -40.7336   -1.6645 C   0  0  0  0  0  0
  -45.0844  -40.0779   -2.1340 C   0  0  0  0  0  0
  -43.9898  -41.1397   -2.3377 C   0  0  0  0  0  0
  -44.5064  -42.1751   -3.3619 C   0  0  0  0  0  0
  -45.8305  -42.8186   -2.9046 C   0  0  0  0  0  0
  -42.6071  -40.6004   -2.6626 C   0  0  0  0  0  0
  -42.0822  -39.3276   -2.8785 C   0  0  0  0  0  0
  -40.6572  -39.4574   -3.0817 C   0  0  0  0  0  0
  -39.5450  -38.6040   -3.3171 C   0  0  0  0  0  0
  -38.2940  -39.2246   -3.4570 C   0  0  0  0  0  0
  -38.1866  -40.6118   -3.4034 C   0  0  0  0  0  0
  -39.2223  -41.4579   -3.2001 N   0  0  0  0  0  0
  -40.3975  -40.8553   -3.0426 C   0  0  0  0  0  0
  -41.5745  -41.4935   -2.7740 N   0  0  0  0  0  0
  -39.6446  -37.1300   -3.4351 C   0  0  0  0  0  0
  -38.7742  -36.3697   -4.3251 C   0  0  0  0  0  0
  -38.8812  -35.0254   -4.4028 C   0  0  0  0  0  0
  -39.8693  -34.2601   -3.6511 C   0  0  0  0  0  0
  -39.9479  -33.0467   -3.8567 O   0  0  0  0  0  0
  -40.6501  -35.0031   -2.7798 N   0  0  0  0  0  0
  -40.5110  -36.3803   -2.7186 C   0  0  0  0  0  0
  -41.6449  -34.2728   -1.9655 C   0  0  0  0  0  0
  -43.0438  -34.9333   -1.8863 C   0  0  0  0  0  0
  -44.4295  -33.8935   -2.4052 S   0  0  0  0  0  0
  -44.0293  -33.6558   -4.1564 C   0  0  0  0  0  0
  -41.7049  -42.4919   -2.6450 H   0  0  0  0  0  0
  -50.1036  -45.2764    0.6634 H   0  0  0  0  0  0
  -50.3213  -43.7438    1.5065 H   0  0  0  0  0  0
  -48.7199  -44.4600    1.3815 H   0  0  0  0  0  0
  -51.3509  -42.6153   -0.5244 H   0  0  0  0  0  0
  -50.6356  -42.8997   -2.1088 H   0  0  0  0  0  0
  -51.3206  -44.2382   -1.2111 H   0  0  0  0  0  0
  -48.5159  -43.0070   -3.0226 H   0  0  0  0  0  0
  -48.8782  -41.5435   -2.1497 H   0  0  0  0  0  0
  -47.1828  -39.9736   -1.6085 H   0  0  0  0  0  0
  -46.2873  -41.1250   -0.6563 H   0  0  0  0  0  0
  -45.2766  -39.4991   -3.0388 H   0  0  0  0  0  0
  -44.7875  -39.3861   -1.3441 H   0  0  0  0  0  0
  -43.9105  -41.6679   -1.3836 H   0  0  0  0  0  0
  -43.7967  -42.9994   -3.4505 H   0  0  0  0  0  0
  -44.6486  -41.7449   -4.3536 H   0  0  0  0  0  0
  -45.6386  -43.4894   -2.0674 H   0  0  0  0  0  0
  -46.2230  -43.4480   -3.7043 H   0  0  0  0  0  0
  -42.6657  -38.4197   -2.8627 H   0  0  0  0  0  0
  -37.3990  -38.6398   -3.6121 H   0  0  0  0  0  0
  -37.2293  -41.0845   -3.5294 H   0  0  0  0  0  0
  -38.0312  -36.8761   -4.9240 H   0  0  0  0  0  0
  -38.2215  -34.4776   -5.0560 H   0  0  0  0  0  0
  -41.1604  -36.8190   -1.9747 H   0  0  0  0  0  0
  -41.2415  -34.2055   -0.9545 H   0  0  0  0  0  0
  -41.7535  -33.2311   -2.2758 H   0  0  0  0  0  0
  -43.1095  -35.8468   -2.4772 H   0  0  0  0  0  0
  -43.2388  -35.2264   -0.8537 H   0  0  0  0  0  0
  -44.8177  -33.0948   -4.6571 H   0  0  0  0  0  0
  -43.0993  -33.0963   -4.2565 H   0  0  0  0  0  0
  -43.9238  -34.6188   -4.6566 H   0  0  0  0  0  0
  1  2  1  0  0  0
  1 34  1  0  0  0
  1 35  1  0  0  0
  1 36  1  0  0  0
  2  3  1  0  0  0
  2  4  1  0  0  0
  3 37  1  0  0  0
  3 38  1  0  0  0
  3 39  1  0  0  0
  4  5  2  0  0  0
  4  6  1  0  0  0
  6  7  1  0  0  0
  6 40  1  0  0  0
  6 41  1  0  0  0
  7 12  1  0  0  0
  7  8  1  0  0  0
  8  9  1  0  0  0
  8 42  1  0  0  0
  8 43  1  0  0  0
  9 10  1  0  0  0
  9 44  1  0  0  0
  9 45  1  0  0  0
 10 11  1  0  0  0
 10 13  1  0  0  0
 10 46  1  0  0  0
 11 12  1  0  0  0
 11 47  1  0  0  0
 11 48  1  0  0  0
 12 49  1  0  0  0
 12 50  1  0  0  0
 13 21  1  0  0  0
 13 14  2  0  0  0
 14 15  1  0  0  0
 14 51  1  0  0  0
 15 20  2  0  0  0
 15 16  1  0  0  0
 16 17  2  0  0  0
 16 22  1  0  0  0
 17 18  1  0  0  0
 17 52  1  0  0  0
 18 19  2  0  0  0
 18 53  1  0  0  0
 19 20  1  0  0  0
 20 21  1  0  0  0
 21 33  1  0  0  0
 22 28  2  0  0  0
 22 23  1  0  0  0
 23 24  2  0  0  0
 23 54  1  0  0  0
 24 25  1  0  0  0
 24 55  1  0  0  0
 25 26  2  0  0  0
 25 27  1  0  0  0
 27 28  1  0  0  0
 27 29  1  0  0  0
 28 56  1  0  0  0
 29 30  1  0  0  0
 29 57  1  0  0  0
 29 58  1  0  0  0
 30 31  1  0  0  0
 30 59  1  0  0  0
 30 60  1  0  0  0
 31 32  1  0  0  0
 32 61  1  0  0  0
 32 62  1  0  0  0
 32 63  1  0  0  0
M  END
> <s_m_source_file>
/home/yujie/leadopt/data/result/selection/CDK9/lig_27.sdf

> <i_m_source_file_index>
1

> <i_lp_mmshare_version>
51139

> <i_f3d_flags>
0

> <s_epik_input>
W0NIM11OKFtDSDNdKUMoPU8pW0NIMl1OMVtDSDJdW0NIMl1bQ0hdKFtDSDJdW0NIMl0xKWMoW2NIXTIpW25IXWMoYzIzKW5bY0hdW2NIXWMzLWM0W2NIXVtjSF1jKD1PKW4oW2NIXTQpW0NIMl1bQ0gyXVNbQ0gzXQ==

> <s_epik_cmdline>
J2VwaWtfcHl0aG9uJywgJy1waHQnLCAnMi4wJywgJy1waCcsICc3LjAnLCAnLXRuJywgJzgnLCAnLW1hJywgJzIwMCcsICctaW1hZScsICc8aW5maWxlLm1hZT4nLCAnLW9tYWUnLCAnPG91dGZpbGUubWFlPic=

> <r_lp_tautomer_probability>
0.999998

> <r_epik_Ionization_Penalty>
  1.2409

> <r_epik_Ionization_Penalty_Charging>
  0.0000

> <r_epik_Ionization_Penalty_Neutral>
  1.2409

> <r_epik_State_Penalty>
  1.3083

> <r_epik_Charging_Adjusted_Penalty>
1.30828

> <i_epik_Tot_Q>
0

> <i_epik_Tot_abs_Q>
0

> <s_lp_Force_Field>
OPLS3e

> <r_lp_Energy>
53.0252

> <b_lp_Chiralities_Consistent>
1

> <s_lp_Variant>
/home/yujie/leadopt/data/result/selection/CDK9/lig_27.sdf:1-2

> <s_i_glide_gridfile>
glide-grid_CDK9

> <i_i_glide_lignum>
2

> <i_i_glide_rotatable_bonds>
8

> <r_i_docking_score>
-7.5808756088573

> <r_i_glide_ligand_efficiency>
-0.236902362776791

> <r_i_glide_ligand_efficiency_sa>
-0.752118118902378

> <r_i_glide_ligand_efficiency_ln>
-1.69756469568758

> <r_i_glide_gscore>
-8.8891556088573

> <r_i_glide_lipo>
-2.80203448890891

> <r_i_glide_hbond>
-0.714272258939825

> <r_i_glide_metal>
-0

> <r_i_glide_rewards>
-1.90834156078508

> <r_i_glide_evdw>
-49.5195045471191

> <r_i_glide_ecoul>
-8.88554668426514

> <r_i_glide_erotb>
0.409773705911136

> <r_i_glide_esite>
-0.0654737761388871

> <r_i_glide_emodel>
-85.6455186766452

> <r_i_glide_energy>
-58.4050512313843

> <r_i_glide_einternal>
14.313196182251

> <i_i_glide_confnum>
65

> <i_i_glide_posenum>
257

> <r_i_glide_eff_state_penalty>
1.30828

$$$$
