/home/yujie/leadopt/data/result/selection/CDK9/lig_32.sdf:1
                    3D
 Schrodinger Suite 2020-3.
 62 65  0  0  1  0            999 V2000
  -43.4022  -34.0797   -3.7959 C   0  0  0  0  0  0
  -42.4283  -34.6263   -2.7299 C   0  0  0  0  0  0
  -42.2896  -33.6559   -1.5405 C   0  0  0  0  0  0
  -41.1302  -35.1168   -3.2688 N   0  0  0  0  0  0
  -40.2209  -34.2370   -3.8340 C   0  0  0  0  0  0
  -40.3610  -33.0276   -4.0301 O   0  0  0  0  0  0
  -38.9991  -34.9120   -4.2374 C   0  0  0  0  0  0
  -38.8269  -36.2478   -4.1129 C   0  0  0  0  0  0
  -39.8530  -37.0985   -3.5426 C   0  0  0  0  0  0
  -40.9350  -36.5019   -3.1604 N   0  0  0  0  0  0
  -39.6396  -38.5608   -3.4036 C   0  0  0  0  0  0
  -38.3592  -39.1436   -3.4567 C   0  0  0  0  0  0
  -38.2117  -40.5248   -3.3293 C   0  0  0  0  0  0
  -39.2287  -41.3995   -3.1342 N   0  0  0  0  0  0
  -40.4334  -40.8366   -3.0645 C   0  0  0  0  0  0
  -40.7258  -39.4504   -3.1938 C   0  0  0  0  0  0
  -42.1509  -39.3465   -3.0535 C   0  0  0  0  0  0
  -42.6549  -40.6004   -2.7479 C   0  0  0  0  0  0
  -41.6124  -41.4935   -2.8072 N   0  0  0  0  0  0
  -44.0479  -41.0473   -2.3583 C   0  0  1  0  0  0
  -44.7798  -39.9629   -1.5415 C   0  0  0  0  0  0
  -46.1433  -40.4604   -1.0566 C   0  0  0  0  0  0
  -46.9921  -40.8539   -2.2854 N   0  3  1  0  0  0
  -46.3046  -41.9737   -3.1070 C   0  0  0  0  0  0
  -44.9122  -41.4886   -3.5597 C   0  0  0  0  0  0
  -48.4217  -41.2722   -1.8399 C   0  0  0  0  0  0
  -49.4626  -40.9038   -2.9230 C   0  0  0  0  0  0
  -49.1373  -40.1252   -3.8262 O   0  0  0  0  0  0
  -50.7146  -41.4242   -2.8370 N   0  0  0  0  0  0
  -51.7479  -41.1461   -3.8414 C   0  0  0  0  0  0
  -51.1808  -42.3183   -1.7725 C   0  0  0  0  0  0
  -41.7248  -42.4855   -2.6220 H   0  0  0  0  0  0
  -44.3513  -33.7983   -3.3380 H   0  0  0  0  0  0
  -43.0215  -33.1686   -4.2567 H   0  0  0  0  0  0
  -43.6291  -34.8204   -4.5629 H   0  0  0  0  0  0
  -42.9474  -35.4898   -2.3051 H   0  0  0  0  0  0
  -43.2652  -33.4031   -1.1246 H   0  0  0  0  0  0
  -41.6894  -34.0724   -0.7302 H   0  0  0  0  0  0
  -41.8553  -32.7085   -1.8578 H   0  0  0  0  0  0
  -38.2111  -34.3096   -4.6634 H   0  0  0  0  0  0
  -37.8905  -36.6547   -4.4560 H   0  0  0  0  0  0
  -37.4653  -38.5511   -3.5843 H   0  0  0  0  0  0
  -37.2292  -40.9648   -3.3674 H   0  0  0  0  0  0
  -42.7404  -38.4423   -3.0912 H   0  0  0  0  0  0
  -43.9652  -41.9148   -1.6984 H   0  0  0  0  0  0
  -44.9328  -39.0595   -2.1355 H   0  0  0  0  0  0
  -44.1964  -39.7032   -0.6567 H   0  0  0  0  0  0
  -46.6794  -39.6706   -0.5274 H   0  0  0  0  0  0
  -46.0476  -41.3393   -0.4160 H   0  0  0  0  0  0
  -46.2414  -42.8559   -2.4659 H   0  0  0  0  0  0
  -46.9538  -42.1948   -3.9561 H   0  0  0  0  0  0
  -44.4290  -42.3117   -4.0872 H   0  0  0  0  0  0
  -45.0544  -40.6615   -4.2548 H   0  0  0  0  0  0
  -48.6478  -40.6935   -0.9411 H   0  0  0  0  0  0
  -48.3822  -42.3307   -1.5787 H   0  0  0  0  0  0
  -51.4218  -40.4411   -4.6091 H   0  0  0  0  0  0
  -52.6326  -40.7232   -3.3632 H   0  0  0  0  0  0
  -52.0467  -42.0679   -4.3444 H   0  0  0  0  0  0
  -50.4529  -42.4971   -0.9808 H   0  0  0  0  0  0
  -52.0671  -41.8945   -1.2964 H   0  0  0  0  0  0
  -51.4611  -43.2863   -2.1918 H   0  0  0  0  0  0
  -47.0876  -40.0286   -2.8664 H   0  0  0  0  0  0
  1  2  1  0  0  0
  1 33  1  0  0  0
  1 34  1  0  0  0
  1 35  1  0  0  0
  2  3  1  0  0  0
  2  4  1  0  0  0
  2 36  1  0  0  0
  3 37  1  0  0  0
  3 38  1  0  0  0
  3 39  1  0  0  0
  4 10  1  0  0  0
  4  5  1  0  0  0
  5  6  2  0  0  0
  5  7  1  0  0  0
  7  8  2  0  0  0
  7 40  1  0  0  0
  8  9  1  0  0  0
  8 41  1  0  0  0
  9 10  2  0  0  0
  9 11  1  0  0  0
 11 16  1  0  0  0
 11 12  2  0  0  0
 12 13  1  0  0  0
 12 42  1  0  0  0
 13 14  2  0  0  0
 13 43  1  0  0  0
 14 15  1  0  0  0
 15 19  1  0  0  0
 15 16  2  0  0  0
 16 17  1  0  0  0
 17 18  2  0  0  0
 17 44  1  0  0  0
 18 19  1  0  0  0
 18 20  1  0  0  0
 19 32  1  0  0  0
 20 25  1  0  0  0
 20 21  1  0  0  0
 20 45  1  0  0  0
 21 22  1  0  0  0
 21 46  1  0  0  0
 21 47  1  0  0  0
 22 23  1  0  0  0
 22 48  1  0  0  0
 22 49  1  0  0  0
 23 24  1  0  0  0
 23 26  1  0  0  0
 23 62  1  0  0  0
 24 25  1  0  0  0
 24 50  1  0  0  0
 24 51  1  0  0  0
 25 52  1  0  0  0
 25 53  1  0  0  0
 26 27  1  0  0  0
 26 54  1  0  0  0
 26 55  1  0  0  0
 27 28  2  0  0  0
 27 29  1  0  0  0
 29 30  1  0  0  0
 29 31  1  0  0  0
 30 56  1  0  0  0
 30 57  1  0  0  0
 30 58  1  0  0  0
 31 59  1  0  0  0
 31 60  1  0  0  0
 31 61  1  0  0  0
M  CHG  1  23   1
M  END
> <s_m_source_file>
/home/yujie/leadopt/data/result/selection/CDK9/lig_32.sdf

> <i_m_source_file_index>
1

> <i_lp_mmshare_version>
51139

> <i_f3d_flags>
0

> <s_epik_input>
W0NIM11bQ0hdKFtDSDNdKW4xYyg9TylbY0hdW2NIXWMobjEpLWMoW2NIXVtjSF1uMiljKGMyMylbY0hdYyhbbkhdMylbQ0hdNFtDSDJdW0NIMl1OKFtDSDJdW0NIMl00KVtDSDJdQyg9TylOKFtDSDNdKVtDSDNd

> <s_epik_cmdline>
J2VwaWtfcHl0aG9uJywgJy1waHQnLCAnMi4wJywgJy1waCcsICc3LjAnLCAnLXRuJywgJzgnLCAnLW1hJywgJzIwMCcsICctaW1hZScsICc8aW5maWxlLm1hZT4nLCAnLW9tYWUnLCAnPG91dGZpbGUubWFlPic=

> <r_lp_tautomer_probability>
0.999998

> <r_epik_Ionization_Penalty>
  0.0807

> <r_epik_Ionization_Penalty_Charging>
  0.0781

> <r_epik_Ionization_Penalty_Neutral>
  0.0027

> <r_epik_State_Penalty>
  0.0670

> <r_epik_Charging_Adjusted_Penalty>
0.145037

> <i_epik_Tot_Q>
1

> <i_epik_Tot_abs_Q>
1

> <s_lp_Force_Field>
OPLS3e

> <r_lp_Energy>
65.9889

> <b_lp_Chiralities_Consistent>
1

> <s_lp_Variant>
/home/yujie/leadopt/data/result/selection/CDK9/lig_32.sdf:1-1

> <s_i_glide_gridfile>
glide-grid_CDK9

> <i_i_glide_lignum>
1

> <i_i_glide_rotatable_bonds>
6

> <r_i_docking_score>
-8.52864072932729

> <r_i_glide_ligand_efficiency>
-0.275117442881525

> <r_i_glide_ligand_efficiency_sa>
-0.864248611214145

> <r_i_glide_ligand_efficiency_ln>
-1.92346985591213

> <r_i_glide_gscore>
-8.59561302932729

> <r_i_glide_lipo>
-2.52206061285659

> <r_i_glide_hbond>
-0.59347946151596

> <r_i_glide_metal>
-0

> <r_i_glide_rewards>
-2.09992907646781

> <r_i_glide_evdw>
-42.7710876464844

> <r_i_glide_ecoul>
-9.92228317260742

> <r_i_glide_erotb>
0.309382727657565

> <r_i_glide_esite>
-0.0626297479291547

> <r_i_glide_emodel>
-84.2418064892486

> <r_i_glide_energy>
-52.6933708190918

> <r_i_glide_einternal>
2.8513925075531

> <i_i_glide_confnum>
10

> <i_i_glide_posenum>
255

> <r_i_glide_eff_state_penalty>
0.0669723

$$$$
