/home/yujie/leadopt/data/result/selection/CDK9/lig_39.sdf:1
                    3D
 Schrodinger Suite 2020-3.
 67 71  0  0  1  0            999 V2000
  -42.0566  -34.7709   -0.8420 C   0  0  0  0  0  0
  -41.5614  -34.1673   -2.1761 C   0  0  0  0  0  0
  -42.7504  -33.7452   -3.0649 C   0  0  0  0  0  0
  -40.5713  -34.9841   -2.9304 N   0  0  0  0  0  0
  -40.4777  -36.3685   -2.8470 C   0  0  0  0  0  0
  -39.5609  -37.1558   -3.4628 C   0  0  0  0  0  0
  -38.5933  -36.4262   -4.2781 C   0  0  0  0  0  0
  -38.6595  -35.0829   -4.3831 C   0  0  0  0  0  0
  -39.6604  -34.2762   -3.7000 C   0  0  0  0  0  0
  -39.6302  -33.0539   -3.8573 O   0  0  0  0  0  0
  -39.5003  -38.6372   -3.3334 C   0  0  0  0  0  0
  -38.2649  -39.2969   -3.4566 C   0  0  0  0  0  0
  -38.1861  -40.6855   -3.3709 C   0  0  0  0  0  0
  -39.2523  -41.4936   -3.1620 N   0  0  0  0  0  0
  -40.4212  -40.8701   -3.0318 C   0  0  0  0  0  0
  -40.6327  -39.4642   -3.0941 C   0  0  0  0  0  0
  -42.0478  -39.2904   -2.8990 C   0  0  0  0  0  0
  -42.6212  -40.5322   -2.6561 C   0  0  0  0  0  0
  -41.6304  -41.4786   -2.7778 N   0  0  0  0  0  0
  -44.0532  -40.9064   -2.3207 C   0  0  1  0  0  0
  -44.8456  -41.4182   -3.5336 C   0  0  0  0  0  0
  -46.3225  -41.7303   -3.2224 C   0  0  0  0  0  0
  -46.4101  -42.6945   -2.0155 N   0  3  1  0  0  0
  -45.7158  -42.0512   -0.7920 C   0  0  0  0  0  0
  -44.2215  -41.8542   -1.1152 C   0  0  0  0  0  0
  -47.8949  -43.0387   -1.7024 C   0  0  0  0  0  0
  -47.9575  -44.4765   -1.1535 C   0  0  0  0  0  0
  -47.6367  -44.6627    0.0216 O   0  0  0  0  0  0
  -48.3388  -45.4877   -1.9691 N   0  0  0  0  0  0
  -48.3105  -46.8893   -1.5316 C   0  0  0  0  0  0
  -48.9712  -47.6287   -2.6929 C   0  0  0  0  0  0
  -48.6429  -46.7782   -3.9049 C   0  0  0  0  0  0
  -48.6982  -45.3432   -3.3864 C   0  0  0  0  0  0
  -41.7948  -42.4724   -2.6533 H   0  0  0  0  0  0
  -42.6858  -34.0532   -0.3143 H   0  0  0  0  0  0
  -42.6731  -35.6581   -0.9876 H   0  0  0  0  0  0
  -41.2313  -35.0140   -0.1722 H   0  0  0  0  0  0
  -41.0675  -33.2393   -1.8761 H   0  0  0  0  0  0
  -43.4984  -33.2090   -2.4810 H   0  0  0  0  0  0
  -42.4412  -33.0617   -3.8563 H   0  0  0  0  0  0
  -43.2495  -34.6059   -3.5085 H   0  0  0  0  0  0
  -41.2310  -36.7797   -2.1981 H   0  0  0  0  0  0
  -37.8286  -36.9539   -4.8248 H   0  0  0  0  0  0
  -37.9411  -34.5667   -5.0015 H   0  0  0  0  0  0
  -37.3549  -38.7399   -3.6142 H   0  0  0  0  0  0
  -37.2297  -41.1780   -3.4645 H   0  0  0  0  0  0
  -42.6048  -38.3664   -2.9030 H   0  0  0  0  0  0
  -44.5651  -39.9923   -2.0108 H   0  0  0  0  0  0
  -44.3838  -42.3148   -3.9513 H   0  0  0  0  0  0
  -44.8596  -40.6151   -4.2577 H   0  0  0  0  0  0
  -46.8102  -42.2178   -4.0695 H   0  0  0  0  0  0
  -46.8836  -40.8298   -2.9591 H   0  0  0  0  0  0
  -46.2197  -41.0933   -0.6536 H   0  0  0  0  0  0
  -45.8935  -42.6917    0.0729 H   0  0  0  0  0  0
  -43.7536  -41.4116   -0.2409 H   0  0  0  0  0  0
  -43.7698  -42.8296   -1.3050 H   0  0  0  0  0  0
  -48.4639  -42.9247   -2.6248 H   0  0  0  0  0  0
  -48.2755  -42.3052   -0.9867 H   0  0  0  0  0  0
  -48.8465  -47.0454   -0.5933 H   0  0  0  0  0  0
  -47.2712  -47.2128   -1.4306 H   0  0  0  0  0  0
  -50.0506  -47.6645   -2.5430 H   0  0  0  0  0  0
  -48.6223  -48.6586   -2.7776 H   0  0  0  0  0  0
  -47.6310  -47.0016   -4.2513 H   0  0  0  0  0  0
  -49.3093  -46.9468   -4.7495 H   0  0  0  0  0  0
  -47.9875  -44.7353   -3.9469 H   0  0  0  0  0  0
  -49.7208  -44.9691   -3.4776 H   0  0  0  0  0  0
  -45.9228  -43.5540   -2.2473 H   0  0  0  0  0  0
  1  2  1  0  0  0
  1 35  1  0  0  0
  1 36  1  0  0  0
  1 37  1  0  0  0
  2  3  1  0  0  0
  2  4  1  0  0  0
  2 38  1  0  0  0
  3 39  1  0  0  0
  3 40  1  0  0  0
  3 41  1  0  0  0
  4  9  1  0  0  0
  4  5  1  0  0  0
  5  6  2  0  0  0
  5 42  1  0  0  0
  6  7  1  0  0  0
  6 11  1  0  0  0
  7  8  2  0  0  0
  7 43  1  0  0  0
  8  9  1  0  0  0
  8 44  1  0  0  0
  9 10  2  0  0  0
 11 16  1  0  0  0
 11 12  2  0  0  0
 12 13  1  0  0  0
 12 45  1  0  0  0
 13 14  2  0  0  0
 13 46  1  0  0  0
 14 15  1  0  0  0
 15 19  1  0  0  0
 15 16  2  0  0  0
 16 17  1  0  0  0
 17 18  2  0  0  0
 17 47  1  0  0  0
 18 19  1  0  0  0
 18 20  1  0  0  0
 19 34  1  0  0  0
 20 25  1  0  0  0
 20 21  1  0  0  0
 20 48  1  0  0  0
 21 22  1  0  0  0
 21 49  1  0  0  0
 21 50  1  0  0  0
 22 23  1  0  0  0
 22 51  1  0  0  0
 22 52  1  0  0  0
 23 24  1  0  0  0
 23 26  1  0  0  0
 23 67  1  0  0  0
 24 25  1  0  0  0
 24 53  1  0  0  0
 24 54  1  0  0  0
 25 55  1  0  0  0
 25 56  1  0  0  0
 26 27  1  0  0  0
 26 57  1  0  0  0
 26 58  1  0  0  0
 27 28  2  0  0  0
 27 29  1  0  0  0
 29 33  1  0  0  0
 29 30  1  0  0  0
 30 31  1  0  0  0
 30 59  1  0  0  0
 30 60  1  0  0  0
 31 32  1  0  0  0
 31 61  1  0  0  0
 31 62  1  0  0  0
 32 33  1  0  0  0
 32 63  1  0  0  0
 32 64  1  0  0  0
 33 65  1  0  0  0
 33 66  1  0  0  0
M  CHG  1  23   1
M  END
> <s_m_source_file>
/home/yujie/leadopt/data/result/selection/CDK9/lig_39.sdf

> <i_m_source_file_index>
1

> <i_lp_mmshare_version>
51139

> <i_f3d_flags>
0

> <s_epik_input>
W0NIM11bQ0hdKFtDSDNdKW4xW2NIXWMoW2NIXVtjSF1jMT1PKS1jKFtjSF1bY0hdbjIpYyhjMjMpW2NIXWMoW25IXTMpW0NIXTRbQ0gyXVtDSDJdTihbQ0gyXVtDSDJdNClbQ0gyXUMoPU8pTjVbQ0gyXVtDSDJdW0NIMl1bQ0gyXTU=

> <s_epik_cmdline>
J2VwaWtfcHl0aG9uJywgJy1waHQnLCAnMi4wJywgJy1waCcsICc3LjAnLCAnLXRuJywgJzgnLCAnLW1hJywgJzIwMCcsICctaW1hZScsICc8aW5maWxlLm1hZT4nLCAnLW9tYWUnLCAnPG91dGZpbGUubWFlPic=

> <r_lp_tautomer_probability>
0.999998

> <r_epik_Ionization_Penalty>
  0.0713

> <r_epik_Ionization_Penalty_Charging>
  0.0702

> <r_epik_Ionization_Penalty_Neutral>
  0.0011

> <r_epik_State_Penalty>
  0.0616

> <r_epik_Charging_Adjusted_Penalty>
0.131787

> <i_epik_Tot_Q>
1

> <i_epik_Tot_abs_Q>
1

> <s_lp_Force_Field>
OPLS3e

> <r_lp_Energy>
68.7665

> <b_lp_Chiralities_Consistent>
1

> <s_lp_Variant>
/home/yujie/leadopt/data/result/selection/CDK9/lig_39.sdf:1-1

> <s_i_glide_gridfile>
glide-grid_CDK9

> <i_i_glide_lignum>
1

> <i_i_glide_rotatable_bonds>
6

> <r_i_docking_score>
-9.15101274855224

> <r_i_glide_ligand_efficiency>
-0.277303416622795

> <r_i_glide_ligand_efficiency_sa>
-0.889460227606083

> <r_i_glide_ligand_efficiency_ln>
-2.0351378538698

> <r_i_glide_gscore>
-9.21257594855224

> <r_i_glide_lipo>
-2.7806119038786

> <r_i_glide_hbond>
-0.76

> <r_i_glide_metal>
-0

> <r_i_glide_rewards>
-1.91503634957414

> <r_i_glide_evdw>
-46.811107635498

> <r_i_glide_ecoul>
-11.2985343933105

> <r_i_glide_erotb>
0.348460409329475

> <r_i_glide_esite>
-0.0700525636574832

> <r_i_glide_emodel>
-90.3711027151387

> <r_i_glide_energy>
-58.1096420288086

> <r_i_glide_einternal>
8.75644016265869

> <i_i_glide_confnum>
129

> <i_i_glide_posenum>
309

> <r_i_glide_eff_state_penalty>
0.0615632

$$$$
