/home/yujie/leadopt/data/result/selection/CDK9/lig_21.sdf:1
                    3D
 Schrodinger Suite 2020-3.
 56 59  0  0  1  0            999 V2000
  -41.5719  -34.2644   -2.2665 C   0  0  0  0  0  0
  -40.4863  -34.9996   -2.9275 N   0  0  0  0  0  0
  -40.4013  -36.3793   -2.8694 C   0  0  0  0  0  0
  -39.4431  -37.1452   -3.4460 C   0  0  0  0  0  0
  -38.4335  -36.3891   -4.1811 C   0  0  0  0  0  0
  -38.4977  -35.0420   -4.2586 C   0  0  0  0  0  0
  -39.5775  -34.2640   -3.6655 C   0  0  0  0  0  0
  -39.6299  -33.0517   -3.8869 O   0  0  0  0  0  0
  -39.3667  -38.6275   -3.3215 C   0  0  0  0  0  0
  -38.1180  -39.2664   -3.3496 C   0  0  0  0  0  0
  -38.0246  -40.6487   -3.2093 C   0  0  0  0  0  0
  -39.0815  -41.4876   -3.0581 N   0  0  0  0  0  0
  -40.2682  -40.8760   -3.0556 C   0  0  0  0  0  0
  -40.4971  -39.4721   -3.1684 C   0  0  0  0  0  0
  -41.9227  -39.3112   -3.1090 C   0  0  0  0  0  0
  -42.5042  -40.5607   -2.9568 C   0  0  0  0  0  0
  -41.4895  -41.4917   -2.9104 N   0  0  0  0  0  0
  -43.9712  -40.9445   -2.8721 C   0  0  0  0  0  0
  -44.2987  -42.4275   -3.1441 C   0  0  0  0  0  0
  -45.8168  -42.7026   -3.1052 C   0  0  0  0  0  0
  -46.4477  -42.2377   -1.8552 N   0  0  1  0  0  0
  -46.1670  -40.8157   -1.6034 C   0  0  0  0  0  0
  -44.6557  -40.5113   -1.5637 C   0  0  0  0  0  0
  -47.9073  -42.4593   -1.8290 C   0  0  0  0  0  0
  -48.2611  -43.9646   -1.7766 C   0  0  0  0  0  0
  -48.6058  -44.4999   -2.8338 O   0  0  0  0  0  0
  -48.2106  -44.6441   -0.6007 N   0  0  0  0  0  0
  -48.5466  -46.0683   -0.5198 C   0  0  0  0  0  0
  -47.8688  -44.0427    0.6909 C   0  0  0  0  0  0
  -41.6604  -42.4818   -2.7701 H   0  0  0  0  0  0
  -41.6527  -34.5746   -1.2236 H   0  0  0  0  0  0
  -41.4337  -33.1803   -2.2609 H   0  0  0  0  0  0
  -42.5224  -34.4793   -2.7550 H   0  0  0  0  0  0
  -41.1911  -36.7903   -2.2563 H   0  0  0  0  0  0
  -37.6293  -36.9058   -4.6785 H   0  0  0  0  0  0
  -37.7377  -34.5046   -4.8041 H   0  0  0  0  0  0
  -37.2047  -38.6978   -3.4419 H   0  0  0  0  0  0
  -37.0427  -41.0941   -3.2037 H   0  0  0  0  0  0
  -42.4860  -38.3937   -3.1854 H   0  0  0  0  0  0
  -44.4975  -40.3941   -3.6547 H   0  0  0  0  0  0
  -43.8207  -43.0953   -2.4247 H   0  0  0  0  0  0
  -43.9647  -42.6926   -4.1460 H   0  0  0  0  0  0
  -45.9818  -43.7755   -3.2181 H   0  0  0  0  0  0
  -46.3081  -42.2277   -3.9568 H   0  0  0  0  0  0
  -46.6589  -40.2074   -2.3652 H   0  0  0  0  0  0
  -46.6149  -40.5206   -0.6567 H   0  0  0  0  0  0
  -44.5627  -39.4324   -1.4329 H   0  0  0  0  0  0
  -44.2241  -41.0025   -0.6897 H   0  0  0  0  0  0
  -48.3888  -42.0042   -2.6970 H   0  0  0  0  0  0
  -48.3679  -41.9708   -0.9683 H   0  0  0  0  0  0
  -47.6597  -46.6437   -0.2528 H   0  0  0  0  0  0
  -48.9222  -46.4753   -1.4600 H   0  0  0  0  0  0
  -49.3108  -46.2387    0.2393 H   0  0  0  0  0  0
  -48.7726  -43.8729    1.2765 H   0  0  0  0  0  0
  -47.2299  -44.7137    1.2643 H   0  0  0  0  0  0
  -47.3388  -43.0945    0.6003 H   0  0  0  0  0  0
  1  2  1  0  0  0
  1 31  1  0  0  0
  1 32  1  0  0  0
  1 33  1  0  0  0
  2  7  1  0  0  0
  2  3  1  0  0  0
  3  4  2  0  0  0
  3 34  1  0  0  0
  4  5  1  0  0  0
  4  9  1  0  0  0
  5  6  2  0  0  0
  5 35  1  0  0  0
  6  7  1  0  0  0
  6 36  1  0  0  0
  7  8  2  0  0  0
  9 14  1  0  0  0
  9 10  2  0  0  0
 10 11  1  0  0  0
 10 37  1  0  0  0
 11 12  2  0  0  0
 11 38  1  0  0  0
 12 13  1  0  0  0
 13 17  1  0  0  0
 13 14  2  0  0  0
 14 15  1  0  0  0
 15 16  2  0  0  0
 15 39  1  0  0  0
 16 17  1  0  0  0
 16 18  1  0  0  0
 17 30  1  0  0  0
 18 23  1  0  0  0
 18 19  1  0  0  0
 18 40  1  0  0  0
 19 20  1  0  0  0
 19 41  1  0  0  0
 19 42  1  0  0  0
 20 21  1  0  0  0
 20 43  1  0  0  0
 20 44  1  0  0  0
 21 22  1  0  0  0
 21 24  1  0  0  0
 22 23  1  0  0  0
 22 45  1  0  0  0
 22 46  1  0  0  0
 23 47  1  0  0  0
 23 48  1  0  0  0
 24 25  1  0  0  0
 24 49  1  0  0  0
 24 50  1  0  0  0
 25 26  2  0  0  0
 25 27  1  0  0  0
 27 28  1  0  0  0
 27 29  1  0  0  0
 28 51  1  0  0  0
 28 52  1  0  0  0
 28 53  1  0  0  0
 29 54  1  0  0  0
 29 55  1  0  0  0
 29 56  1  0  0  0
M  END
> <s_m_source_file>
/home/yujie/leadopt/data/result/selection/CDK9/lig_21.sdf

> <i_m_source_file_index>
1

> <i_lp_mmshare_version>
51139

> <i_f3d_flags>
0

> <s_epik_input>
Tz1jMVtjSF1bY0hdYyhbY0hdbjFbQ0gzXSktYyhbY0hdW2NIXW4yKWMoYzIzKVtjSF1jKFtuSF0zKVtDSF00W0NIMl1bQ0gyXU4oW0NIMl1bQ0gyXTQpW0NIMl1DKD1PKU4oW0NIM10pW0NIM10=

> <s_epik_cmdline>
J2VwaWtfcHl0aG9uJywgJy1waHQnLCAnMi4wJywgJy1waCcsICc3LjAnLCAnLXRuJywgJzgnLCAnLW1hJywgJzIwMCcsICctaW1hZScsICc8aW5maWxlLm1hZT4nLCAnLW9tYWUnLCAnPG91dGZpbGUubWFlPic=

> <r_lp_tautomer_probability>
0.999998

> <r_epik_Ionization_Penalty>
  1.2409

> <r_epik_Ionization_Penalty_Charging>
  0.0000

> <r_epik_Ionization_Penalty_Neutral>
  1.2409

> <r_epik_State_Penalty>
  1.3083

> <r_epik_Charging_Adjusted_Penalty>
1.30828

> <i_epik_Tot_Q>
0

> <i_epik_Tot_abs_Q>
0

> <s_lp_Force_Field>
OPLS3e

> <r_lp_Energy>
55.082

> <b_lp_Chiralities_Consistent>
1

> <s_lp_Variant>
/home/yujie/leadopt/data/result/selection/CDK9/lig_21.sdf:1-2

> <s_i_glide_gridfile>
glide-grid_CDK9

> <i_i_glide_lignum>
2

> <i_i_glide_rotatable_bonds>
5

> <r_i_docking_score>
-7.51363159310267

> <r_i_glide_ligand_efficiency>
-0.259090744589747

> <r_i_glide_ligand_efficiency_sa>
-0.796008853089089

> <r_i_glide_ligand_efficiency_ln>
-1.72043110556263

> <r_i_glide_gscore>
-8.82191159310267

> <r_i_glide_lipo>
-2.62755376707022

> <r_i_glide_hbond>
-0.76

> <r_i_glide_metal>
-0

> <r_i_glide_rewards>
-2.31409949169198

> <r_i_glide_evdw>
-44.4717483520508

> <r_i_glide_ecoul>
-8.16384410858154

> <r_i_glide_erotb>
0.353287092553991

> <r_i_glide_esite>
-0.025381393004691

> <r_i_glide_emodel>
-80.2249568461905

> <r_i_glide_energy>
-52.6355924606323

> <r_i_glide_einternal>
5.95881414413452

> <i_i_glide_confnum>
26

> <i_i_glide_posenum>
271

> <r_i_glide_eff_state_penalty>
1.30828

$$$$
