/home/yujie/leadopt/data/result/selection/CDK9/lig_26.sdf:1
                    3D
 Schrodinger Suite 2020-3.
 63 66  0  0  1  0            999 V2000
  -50.9708  -42.6218   -3.6331 C   0  0  0  0  0  0
  -50.3331  -41.5911   -4.4595 N   0  0  0  0  0  0
  -51.2653  -40.9737   -5.4065 C   0  0  0  0  0  0
  -49.0226  -41.2299   -4.3836 C   0  0  0  0  0  0
  -48.5726  -40.2938   -5.0564 O   0  0  0  0  0  0
  -48.0951  -42.0474   -3.4379 C   0  0  0  0  0  0
  -46.6802  -41.6270   -3.4887 N   0  0  2  0  0  0
  -46.4331  -40.4167   -2.6880 C   0  0  0  0  0  0
  -44.9835  -39.9123   -2.8350 C   0  0  0  0  0  0
  -43.9191  -41.0054   -2.5793 C   0  0  0  0  0  0
  -44.3141  -42.3559   -3.2216 C   0  0  0  0  0  0
  -45.8013  -42.7109   -3.0311 C   0  0  0  0  0  0
  -42.4845  -40.5717   -2.8173 C   0  0  0  0  0  0
  -41.9271  -39.3232   -3.0569 C   0  0  0  0  0  0
  -40.5023  -39.4704   -3.1760 C   0  0  0  0  0  0
  -39.3814  -38.6211   -3.3824 C   0  0  0  0  0  0
  -38.1310  -39.2553   -3.4552 C   0  0  0  0  0  0
  -38.0259  -40.6367   -3.3155 C   0  0  0  0  0  0
  -39.0722  -41.4747   -3.1131 N   0  0  0  0  0  0
  -40.2593  -40.8709   -3.0567 C   0  0  0  0  0  0
  -41.4631  -41.4931   -2.8249 N   0  0  0  0  0  0
  -39.4668  -37.1374   -3.5084 C   0  0  0  0  0  0
  -38.4569  -36.3676   -4.2311 C   0  0  0  0  0  0
  -38.5435  -35.0222   -4.3159 C   0  0  0  0  0  0
  -39.6239  -34.2547   -3.7115 C   0  0  0  0  0  0
  -39.6399  -33.0302   -3.8583 O   0  0  0  0  0  0
  -40.5567  -35.0034   -3.0169 N   0  0  0  0  0  0
  -40.4416  -36.3818   -2.9445 C   0  0  0  0  0  0
  -41.6214  -34.2589   -2.3158 C   0  0  0  0  0  0
  -42.8266  -33.8970   -3.2097 C   0  0  0  0  0  0
  -43.4012  -35.0305   -3.8564 O   0  0  0  0  0  0
  -44.2054  -35.8570   -3.0251 C   0  0  0  0  0  0
  -41.6282  -42.4818   -2.6574 H   0  0  0  0  0  0
  -51.3230  -43.4430   -4.2616 H   0  0  0  0  0  0
  -51.8368  -42.2024   -3.1171 H   0  0  0  0  0  0
  -50.3218  -43.0512   -2.8676 H   0  0  0  0  0  0
  -50.7779  -40.2937   -6.1059 H   0  0  0  0  0  0
  -51.7564  -41.7437   -6.0036 H   0  0  0  0  0  0
  -52.0370  -40.4165   -4.8731 H   0  0  0  0  0  0
  -48.4642  -41.9933   -2.4114 H   0  0  0  0  0  0
  -48.1791  -43.0884   -3.7565 H   0  0  0  0  0  0
  -47.1018  -39.6228   -3.0232 H   0  0  0  0  0  0
  -46.6823  -40.6006   -1.6404 H   0  0  0  0  0  0
  -44.8983  -39.5127   -3.8460 H   0  0  0  0  0  0
  -44.8554  -39.0925   -2.1258 H   0  0  0  0  0  0
  -44.0619  -41.2161   -1.5167 H   0  0  0  0  0  0
  -43.7395  -43.1710   -2.7801 H   0  0  0  0  0  0
  -44.1328  -42.3381   -4.2965 H   0  0  0  0  0  0
  -46.0251  -42.9728   -1.9943 H   0  0  0  0  0  0
  -46.0068  -43.6055   -3.6224 H   0  0  0  0  0  0
  -42.5026  -38.4140   -3.1276 H   0  0  0  0  0  0
  -37.2240  -38.6855   -3.5850 H   0  0  0  0  0  0
  -37.0493  -41.0935   -3.3516 H   0  0  0  0  0  0
  -37.6302  -36.8656   -4.7132 H   0  0  0  0  0  0
  -37.7857  -34.4759   -4.8540 H   0  0  0  0  0  0
  -41.2302  -36.8042   -2.3417 H   0  0  0  0  0  0
  -41.9710  -34.9164   -1.5209 H   0  0  0  0  0  0
  -41.2303  -33.3626   -1.8300 H   0  0  0  0  0  0
  -43.5780  -33.3460   -2.6408 H   0  0  0  0  0  0
  -42.4964  -33.2066   -3.9858 H   0  0  0  0  0  0
  -44.6065  -36.6822   -3.6134 H   0  0  0  0  0  0
  -43.6352  -36.2881   -2.2019 H   0  0  0  0  0  0
  -45.0487  -35.3021   -2.6119 H   0  0  0  0  0  0
  1  2  1  0  0  0
  1 34  1  0  0  0
  1 35  1  0  0  0
  1 36  1  0  0  0
  2  3  1  0  0  0
  2  4  1  0  0  0
  3 37  1  0  0  0
  3 38  1  0  0  0
  3 39  1  0  0  0
  4  5  2  0  0  0
  4  6  1  0  0  0
  6  7  1  0  0  0
  6 40  1  0  0  0
  6 41  1  0  0  0
  7 12  1  0  0  0
  7  8  1  0  0  0
  8  9  1  0  0  0
  8 42  1  0  0  0
  8 43  1  0  0  0
  9 10  1  0  0  0
  9 44  1  0  0  0
  9 45  1  0  0  0
 10 11  1  0  0  0
 10 13  1  0  0  0
 10 46  1  0  0  0
 11 12  1  0  0  0
 11 47  1  0  0  0
 11 48  1  0  0  0
 12 49  1  0  0  0
 12 50  1  0  0  0
 13 21  1  0  0  0
 13 14  2  0  0  0
 14 15  1  0  0  0
 14 51  1  0  0  0
 15 20  2  0  0  0
 15 16  1  0  0  0
 16 17  2  0  0  0
 16 22  1  0  0  0
 17 18  1  0  0  0
 17 52  1  0  0  0
 18 19  2  0  0  0
 18 53  1  0  0  0
 19 20  1  0  0  0
 20 21  1  0  0  0
 21 33  1  0  0  0
 22 28  2  0  0  0
 22 23  1  0  0  0
 23 24  2  0  0  0
 23 54  1  0  0  0
 24 25  1  0  0  0
 24 55  1  0  0  0
 25 26  2  0  0  0
 25 27  1  0  0  0
 27 28  1  0  0  0
 27 29  1  0  0  0
 28 56  1  0  0  0
 29 30  1  0  0  0
 29 57  1  0  0  0
 29 58  1  0  0  0
 30 31  1  0  0  0
 30 59  1  0  0  0
 30 60  1  0  0  0
 31 32  1  0  0  0
 32 61  1  0  0  0
 32 62  1  0  0  0
 32 63  1  0  0  0
M  END
> <s_m_source_file>
/home/yujie/leadopt/data/result/selection/CDK9/lig_26.sdf

> <i_m_source_file_index>
1

> <i_lp_mmshare_version>
51139

> <i_f3d_flags>
0

> <s_epik_input>
W0NIM11OKFtDSDNdKUMoPU8pW0NIMl1OMVtDSDJdW0NIMl1bQ0hdKFtDSDJdW0NIMl0xKWMoW2NIXTIpW25IXWMoYzIzKW5bY0hdW2NIXWMzLWM0W2NIXVtjSF1jKD1PKW4oW2NIXTQpW0NIMl1bQ0gyXU9bQ0gzXQ==

> <s_epik_cmdline>
J2VwaWtfcHl0aG9uJywgJy1waHQnLCAnMi4wJywgJy1waCcsICc3LjAnLCAnLXRuJywgJzgnLCAnLW1hJywgJzIwMCcsICctaW1hZScsICc8aW5maWxlLm1hZT4nLCAnLW9tYWUnLCAnPG91dGZpbGUubWFlPic=

> <r_lp_tautomer_probability>
0.999998

> <r_epik_Ionization_Penalty>
  1.2409

> <r_epik_Ionization_Penalty_Charging>
  0.0000

> <r_epik_Ionization_Penalty_Neutral>
  1.2409

> <r_epik_State_Penalty>
  1.3083

> <r_epik_Charging_Adjusted_Penalty>
1.30828

> <i_epik_Tot_Q>
0

> <i_epik_Tot_abs_Q>
0

> <s_lp_Force_Field>
OPLS3e

> <r_lp_Energy>
56.8689

> <b_lp_Chiralities_Consistent>
1

> <s_lp_Variant>
/home/yujie/leadopt/data/result/selection/CDK9/lig_26.sdf:1-2

> <s_i_glide_gridfile>
glide-grid_CDK9

> <i_i_glide_lignum>
2

> <i_i_glide_rotatable_bonds>
8

> <r_i_docking_score>
-8.09095485324551

> <r_i_glide_ligand_efficiency>
-0.252842339163922

> <r_i_glide_ligand_efficiency_sa>
-0.802724389414477

> <r_i_glide_ligand_efficiency_ln>
-1.81178534274116

> <r_i_glide_gscore>
-9.39923485324551

> <r_i_glide_lipo>
-2.87165995462063

> <r_i_glide_hbond>
-0.764894166628907

> <r_i_glide_metal>
-0

> <r_i_glide_rewards>
-2.03063231415782

> <r_i_glide_evdw>
-44.9588623046875

> <r_i_glide_ecoul>
-12.5889682769775

> <r_i_glide_erotb>
0.437518555102526

> <r_i_glide_esite>
-0.0332786161596672

> <r_i_glide_emodel>
-89.5262429211976

> <r_i_glide_energy>
-57.547830581665

> <r_i_glide_einternal>
3.96222496032715

> <i_i_glide_confnum>
109

> <i_i_glide_posenum>
204

> <r_i_glide_eff_state_penalty>
1.30828

$$$$
