/home/yujie/leadopt/data/result/selection/CDK9/lig_16.sdf:1
                    3D
 Schrodinger Suite 2020-3.
 52 55  0  0  1  0            999 V2000
  -41.2055  -36.2811   -0.1273 C   0  0  0  0  0  0
  -40.6283  -36.9697   -1.2337 O   0  0  0  0  0  0
  -40.2112  -36.2590   -2.3468 C   0  0  0  0  0  0
  -40.3646  -34.8650   -2.4707 C   0  0  0  0  0  0
  -39.8807  -34.1912   -3.5886 C   0  0  0  0  0  0
  -39.2417  -34.8965   -4.5990 C   0  0  0  0  0  0
  -39.0950  -36.2752   -4.4991 C   0  0  0  0  0  0
  -39.5756  -36.9727   -3.3837 C   0  0  0  0  0  0
  -39.3419  -38.4417   -3.3153 C   0  0  0  0  0  0
  -38.0412  -38.9464   -3.4541 C   0  0  0  0  0  0
  -37.8095  -40.3177   -3.3794 C   0  0  0  0  0  0
  -38.7748  -41.2498   -3.1806 N   0  0  0  0  0  0
  -40.0094  -40.7612   -3.0569 C   0  0  0  0  0  0
  -40.3773  -39.3866   -3.1067 C   0  0  0  0  0  0
  -41.8009  -39.3572   -2.9082 C   0  0  0  0  0  0
  -42.2285  -40.6576   -2.6564 C   0  0  0  0  0  0
  -41.1456  -41.4927   -2.8010 N   0  0  0  0  0  0
  -43.5621  -41.2437   -2.2266 C   0  0  1  0  0  0
  -44.5354  -40.2034   -1.6319 C   0  0  0  0  0  0
  -45.7865  -40.8917   -1.0569 C   0  0  0  0  0  0
  -46.4642  -41.7194   -2.1761 N   0  3  1  0  0  0
  -45.5130  -42.7722   -2.7997 C   0  0  0  0  0  0
  -44.2612  -42.0584   -3.3371 C   0  0  0  0  0  0
  -47.7986  -42.3501   -1.6921 C   0  0  0  0  0  0
  -47.6241  -43.4268   -0.5915 C   0  0  0  0  0  0
  -48.3941  -43.0937    0.5428 O   0  0  0  0  0  0
  -40.0215  -32.8521   -3.7001 F   0  0  0  0  0  0
  -41.2271  -42.4939   -2.6588 H   0  0  0  0  0  0
  -41.4489  -37.0001    0.6551 H   0  0  0  0  0  0
  -40.5133  -35.5546    0.3007 H   0  0  0  0  0  0
  -42.1310  -35.7757   -0.4084 H   0  0  0  0  0  0
  -40.8426  -34.2780   -1.7028 H   0  0  0  0  0  0
  -38.8549  -34.3725   -5.4558 H   0  0  0  0  0  0
  -38.5935  -36.8065   -5.2955 H   0  0  0  0  0  0
  -37.2088  -38.2736   -3.6076 H   0  0  0  0  0  0
  -36.8031  -40.6967   -3.4735 H   0  0  0  0  0  0
  -42.4310  -38.4808   -2.8725 H   0  0  0  0  0  0
  -43.3499  -41.9470   -1.4157 H   0  0  0  0  0  0
  -44.8383  -39.4714   -2.3815 H   0  0  0  0  0  0
  -44.0553  -39.6767   -0.8040 H   0  0  0  0  0  0
  -46.5162  -40.1779   -0.6653 H   0  0  0  0  0  0
  -45.5210  -41.5799   -0.2541 H   0  0  0  0  0  0
  -45.2482  -43.4930   -2.0262 H   0  0  0  0  0  0
  -46.0634  -43.2860   -3.5899 H   0  0  0  0  0  0
  -43.5905  -42.8397   -3.6950 H   0  0  0  0  0  0
  -44.5458  -41.4257   -4.1777 H   0  0  0  0  0  0
  -48.2571  -42.7658   -2.5909 H   0  0  0  0  0  0
  -48.4161  -41.5064   -1.3729 H   0  0  0  0  0  0
  -46.5913  -43.5454   -0.2681 H   0  0  0  0  0  0
  -47.9471  -44.4022   -0.9602 H   0  0  0  0  0  0
  -47.9917  -42.3025    0.9501 H   0  0  0  0  0  0
  -46.6870  -41.0618   -2.9116 H   0  0  0  0  0  0
  1  2  1  0  0  0
  1 29  1  0  0  0
  1 30  1  0  0  0
  1 31  1  0  0  0
  2  3  1  0  0  0
  3  8  1  0  0  0
  3  4  2  0  0  0
  4  5  1  0  0  0
  4 32  1  0  0  0
  5  6  2  0  0  0
  5 27  1  0  0  0
  6  7  1  0  0  0
  6 33  1  0  0  0
  7  8  2  0  0  0
  7 34  1  0  0  0
  8  9  1  0  0  0
  9 14  1  0  0  0
  9 10  2  0  0  0
 10 11  1  0  0  0
 10 35  1  0  0  0
 11 12  2  0  0  0
 11 36  1  0  0  0
 12 13  1  0  0  0
 13 17  1  0  0  0
 13 14  2  0  0  0
 14 15  1  0  0  0
 15 16  2  0  0  0
 15 37  1  0  0  0
 16 17  1  0  0  0
 16 18  1  0  0  0
 17 28  1  0  0  0
 18 23  1  0  0  0
 18 19  1  0  0  0
 18 38  1  0  0  0
 19 20  1  0  0  0
 19 39  1  0  0  0
 19 40  1  0  0  0
 20 21  1  0  0  0
 20 41  1  0  0  0
 20 42  1  0  0  0
 21 22  1  0  0  0
 21 24  1  0  0  0
 21 52  1  0  0  0
 22 23  1  0  0  0
 22 43  1  0  0  0
 22 44  1  0  0  0
 23 45  1  0  0  0
 23 46  1  0  0  0
 24 25  1  0  0  0
 24 47  1  0  0  0
 24 48  1  0  0  0
 25 26  1  0  0  0
 25 49  1  0  0  0
 25 50  1  0  0  0
 26 51  1  0  0  0
M  CHG  1  21   1
M  END
> <s_m_source_file>
/home/yujie/leadopt/data/result/selection/CDK9/lig_16.sdf

> <i_m_source_file_index>
1

> <i_lp_mmshare_version>
51139

> <i_f3d_flags>
0

> <s_epik_input>
W0NIM11PYzFbY0hdYyhGKVtjSF1bY0hdYzEtYyhbY0hdW2NIXW4yKWMoYzIzKVtjSF1jKFtuSF0zKVtDSF00W0NIMl1bQ0gyXU4oW0NIMl1bQ0gyXTQpW0NIMl1bQ0gyXVtPSF0=

> <s_epik_cmdline>
J2VwaWtfcHl0aG9uJywgJy1waHQnLCAnMi4wJywgJy1waCcsICc3LjAnLCAnLXRuJywgJzgnLCAnLW1hJywgJzIwMCcsICctaW1hZScsICc8aW5maWxlLm1hZT4nLCAnLW9tYWUnLCAnPG91dGZpbGUubWFlPic=

> <r_lp_tautomer_probability>
0.999998

> <r_epik_Ionization_Penalty>
  0.0094

> <r_epik_Ionization_Penalty_Charging>
  0.0079

> <r_epik_Ionization_Penalty_Neutral>
  0.0015

> <r_epik_State_Penalty>
  0.0059

> <r_epik_Charging_Adjusted_Penalty>
0.0138083

> <i_epik_Tot_Q>
1

> <i_epik_Tot_abs_Q>
1

> <s_lp_Force_Field>
OPLS3e

> <r_lp_Energy>
41.3835

> <b_lp_Chiralities_Consistent>
1

> <s_lp_Variant>
/home/yujie/leadopt/data/result/selection/CDK9/lig_16.sdf:1-1

> <s_i_glide_gridfile>
glide-grid_CDK9

> <i_i_glide_lignum>
1

> <i_i_glide_rotatable_bonds>
6

> <r_i_docking_score>
-9.60584489064387

> <r_i_glide_ligand_efficiency>
-0.35577203298681

> <r_i_glide_ligand_efficiency_sa>
-1.06731609778786

> <r_i_glide_ligand_efficiency_ln>
-2.23608232581199

> <r_i_glide_gscore>
-9.61176305064387

> <r_i_glide_lipo>
-2.94981884703471

> <r_i_glide_hbond>
-0.551174316108149

> <r_i_glide_metal>
-0

> <r_i_glide_rewards>
-2.40103118496733

> <r_i_glide_evdw>
-41.258113861084

> <r_i_glide_ecoul>
-12.6651372909546

> <r_i_glide_erotb>
0.39364156052014

> <r_i_glide_esite>
-0.140703976356437

> <r_i_glide_emodel>
-85.2127012143614

> <r_i_glide_energy>
-53.9232511520386

> <r_i_glide_einternal>
15.0728492736816

> <i_i_glide_confnum>
33

> <i_i_glide_posenum>
151

> <r_i_glide_eff_state_penalty>
0.00591816

$$$$
