/home/yujie/leadopt/data/result/selection/HO1/lig_11c.sdf:1
                    3D
 Schrodinger Suite 2020-3.
 48 50  0  0  1  0            999 V2000
  -24.6625   -8.8968    9.1063 O   0  0  0  0  0  0
  -25.0881   -8.7608    7.9654 C   0  0  0  0  0  0
  -24.5688   -9.4396    6.9099 N   0  0  0  0  0  0
  -24.9800   -9.1908    5.5153 C   0  0  0  0  0  0
  -24.5113   -7.8581    4.9247 C   0  0  0  0  0  0
  -23.7431   -6.9525    5.6714 C   0  0  0  0  0  0
  -23.4624   -5.6948    5.1694 C   0  0  0  0  0  0
  -23.8634   -5.3623    3.8850 C   0  0  0  0  0  0
  -24.5994   -6.2603    3.1184 C   0  0  0  0  0  0
  -24.9298   -7.5092    3.6381 C   0  0  0  0  0  0
  -23.3930  -10.3044    7.0983 C   0  0  0  0  0  0
  -23.6267  -11.7850    6.7502 C   0  0  0  0  0  0
  -22.3826  -12.6362    7.0755 C   0  0  0  0  0  0
  -22.4596  -13.9604    6.4742 N   0  0  0  0  0  0
  -22.5736  -14.2768    5.1444 C   0  0  0  0  0  0
  -22.5623  -15.6621    5.0901 C   0  0  0  0  0  0
  -22.4358  -16.2008    6.2893 N   0  0  0  0  0  0
  -22.3769  -15.1768    7.1062 C   0  0  0  0  0  0
  -26.2580   -7.7758    7.7859 C   0  0  0  0  0  0
  -27.4154   -8.1671    8.6870 C   0  0  0  0  0  0
  -28.0210   -7.2130    9.5025 C   0  0  0  0  0  0
  -29.0384   -7.5984   10.3623 C   0  0  0  0  0  0
  -29.5252   -8.8967   10.3064 C   0  0  0  0  0  0
  -28.9342   -9.8475    9.4960 C   0  0  0  0  0  0
  -27.8623   -9.4901    8.7063 C   0  0  0  0  0  0
  -24.6625  -10.0017    4.8638 H   0  0  0  0  0  0
  -26.0685   -9.2165    5.4561 H   0  0  0  0  0  0
  -23.3839   -7.1824    6.6626 H   0  0  0  0  0  0
  -22.9088   -4.9861    5.7688 H   0  0  0  0  0  0
  -23.6445   -4.3783    3.5064 H   0  0  0  0  0  0
  -24.9424   -5.9668    2.1422 H   0  0  0  0  0  0
  -25.5303   -8.1893    3.0499 H   0  0  0  0  0  0
  -22.5584   -9.8974    6.5341 H   0  0  0  0  0  0
  -23.0393  -10.2714    8.1283 H   0  0  0  0  0  0
  -24.4774  -12.1657    7.3174 H   0  0  0  0  0  0
  -23.8849  -11.8819    5.6970 H   0  0  0  0  0  0
  -21.4714  -12.1649    6.7063 H   0  0  0  0  0  0
  -22.2626  -12.7321    8.1563 H   0  0  0  0  0  0
  -22.6508  -13.5131    4.3837 H   0  0  0  0  0  0
  -22.6397  -16.2681    4.1988 H   0  0  0  0  0  0
  -22.2623  -15.2187    8.1792 H   0  0  0  0  0  0
  -26.6342   -7.6940    6.7697 H   0  0  0  0  0  0
  -25.8949   -6.7799    8.0442 H   0  0  0  0  0  0
  -27.6789   -6.1892    9.5055 H   0  0  0  0  0  0
  -29.4625   -6.8809   11.0487 H   0  0  0  0  0  0
  -30.3369   -9.1950   10.9497 H   0  0  0  0  0  0
  -29.2894  -10.8653    9.4880 H   0  0  0  0  0  0
  -27.3903  -10.2471    8.0969 H   0  0  0  0  0  0
  1  2  2  0  0  0
  2  3  1  0  0  0
  2 19  1  0  0  0
  3  4  1  0  0  0
  3 11  1  0  0  0
  4  5  1  0  0  0
  4 26  1  0  0  0
  4 27  1  0  0  0
  5 10  1  0  0  0
  5  6  2  0  0  0
  6  7  1  0  0  0
  6 28  1  0  0  0
  7  8  2  0  0  0
  7 29  1  0  0  0
  8  9  1  0  0  0
  8 30  1  0  0  0
  9 10  2  0  0  0
  9 31  1  0  0  0
 10 32  1  0  0  0
 11 12  1  0  0  0
 11 33  1  0  0  0
 11 34  1  0  0  0
 12 13  1  0  0  0
 12 35  1  0  0  0
 12 36  1  0  0  0
 13 14  1  0  0  0
 13 37  1  0  0  0
 13 38  1  0  0  0
 14 18  1  0  0  0
 14 15  1  0  0  0
 15 16  2  0  0  0
 15 39  1  0  0  0
 16 17  1  0  0  0
 16 40  1  0  0  0
 17 18  2  0  0  0
 18 41  1  0  0  0
 19 20  1  0  0  0
 19 42  1  0  0  0
 19 43  1  0  0  0
 20 25  1  0  0  0
 20 21  2  0  0  0
 21 22  1  0  0  0
 21 44  1  0  0  0
 22 23  2  0  0  0
 22 45  1  0  0  0
 23 24  1  0  0  0
 23 46  1  0  0  0
 24 25  2  0  0  0
 24 47  1  0  0  0
 25 48  1  0  0  0
M  END
> <s_m_source_file>
/home/yujie/leadopt/data/result/selection/HO1/lig_11c.sdf

> <i_m_source_file_index>
1

> <i_lp_mmshare_version>
51139

> <i_f3d_flags>
0

> <s_epik_input>
W2NIXTFbY0hdW2NIXVtjSF1bY0hdYzFbQ0gyXUMoPU8pTihbQ0gyXWMyW2NIXVtjSF1bY0hdW2NIXVtjSF0yKVtDSDJdW0NIMl1bQ0gyXW4zW2NIXVtjSF1uW2NIXTM=

> <s_epik_cmdline>
J2VwaWtfcHl0aG9uJywgJy1waHQnLCAnMi4wJywgJy1waCcsICc3LjAnLCAnLXRuJywgJzgnLCAnLW1hJywgJzIwMCcsICctaW1hZScsICc8aW5maWxlLm1hZT4nLCAnLW9tYWUnLCAnPG91dGZpbGUubWFlPic=

> <r_lp_tautomer_probability>
1

> <r_epik_Ionization_Penalty>
  0.6073

> <r_epik_Ionization_Penalty_Charging>
  0.6073

> <r_epik_Ionization_Penalty_Neutral>
  0.0000

> <r_epik_State_Penalty>
  0.6222

> <r_epik_Charging_Adjusted_Penalty>
1.22955

> <i_epik_Tot_Q>
0

> <i_epik_Tot_abs_Q>
0

> <s_lp_Force_Field>
OPLS3e

> <r_lp_Energy>
33.1805

> <b_lp_Chiralities_Consistent>
1

> <s_lp_Variant>
/home/yujie/leadopt/data/result/selection/HO1/lig_11c.sdf:1-2

> <s_i_glide_gridfile>
glide-grid_HO1

> <i_i_glide_lignum>
2

> <i_i_glide_rotatable_bonds>
9

> <r_i_docking_score>
-5.45683714811284

> <r_i_glide_ligand_efficiency>
-0.218273485924513

> <r_i_glide_ligand_efficiency_sa>
-0.638235543940033

> <r_i_glide_ligand_efficiency_ln>
-1.29343393231615

> <r_i_glide_gscore>
-6.07906414811284

> <r_i_glide_lipo>
-3.48005453223979

> <r_i_glide_hbond>
0

> <r_i_glide_metal>
-0

> <r_i_glide_rewards>
-2.36772916375272

> <r_i_glide_evdw>
-25.9423980712891

> <r_i_glide_ecoul>
0.324346214532852

> <r_i_glide_erotb>
1.01718751926419

> <r_i_glide_esite>
0

> <r_i_glide_emodel>
-38.8373771208087

> <r_i_glide_energy>
-25.6180518567562

> <r_i_glide_einternal>
6.34957551956177

> <i_i_glide_confnum>
23

> <i_i_glide_posenum>
241

> <r_i_glide_eff_state_penalty>
0.622227

$$$$
