/home/yujie/leadopt/data/result/selection/HO1/lig_7k.sdf:1
                    3D
 Schrodinger Suite 2020-3.
 48 50  0  0  1  0            999 V2000
  -27.0619  -10.6680    9.6500 O   0  0  0  0  0  0
  -26.3458  -10.7938    8.6520 C   0  0  0  0  0  0
  -26.4661  -12.1360    7.8967 C   0  0  0  0  0  0
  -25.2199  -12.8210    7.5722 N   0  0  0  0  0  0
  -24.1486  -13.0809    8.3898 C   0  0  0  0  0  0
  -23.2392  -13.7682    7.5996 C   0  0  0  0  0  0
  -23.6947  -13.9629    6.3757 N   0  0  0  0  0  0
  -24.8822  -13.4071    6.3751 C   0  0  0  0  0  0
  -25.5088   -9.7970    8.2388 N   0  0  0  0  0  0
  -25.3953   -8.5687    9.0521 C   0  0  0  0  0  0
  -24.7688   -9.7775    6.9459 C   0  0  2  0  0  0
  -23.4039   -9.0821    7.0358 C   0  0  0  0  0  0
  -22.2903   -9.8117    7.4678 C   0  0  0  0  0  0
  -21.0092   -9.2911    7.2954 C   0  0  0  0  0  0
  -20.8505   -8.0446    6.7063 C   0  0  0  0  0  0
  -21.9610   -7.2968    6.3064 C   0  0  0  0  0  0
  -23.2295   -7.7926    6.5234 C   0  0  0  0  0  0
  -25.6241   -9.3364    5.7029 C   0  0  0  0  0  0
  -26.6267   -8.1896    5.9587 C   0  0  0  0  0  0
  -27.0818   -7.4185    4.7267 C   0  0  0  0  0  0
  -25.9773   -7.1300    3.7103 C   0  0  0  0  0  0
  -25.4540   -8.4571    3.1791 C   0  0  0  0  0  0
  -24.8981   -9.3481    4.3104 C   0  0  0  0  0  0
  -27.0381  -11.9792    6.9826 H   0  0  0  0  0  0
  -27.0452  -12.8330    8.5040 H   0  0  0  0  0  0
  -24.1174  -12.7370    9.4154 H   0  0  0  0  0  0
  -22.2645  -14.1190    7.9055 H   0  0  0  0  0  0
  -25.5680  -13.3718    5.5414 H   0  0  0  0  0  0
  -26.1314   -8.4972    9.8527 H   0  0  0  0  0  0
  -24.4036   -8.5283    9.5057 H   0  0  0  0  0  0
  -25.5076   -7.6681    8.4548 H   0  0  0  0  0  0
  -24.4819  -10.7892    6.6875 H   0  0  0  0  0  0
  -22.4128  -10.8063    7.8739 H   0  0  0  0  0  0
  -20.1308   -9.8622    7.5485 H   0  0  0  0  0  0
  -19.8581   -7.6448    6.5688 H   0  0  0  0  0  0
  -21.8626   -6.3013    5.9062 H   0  0  0  0  0  0
  -24.0593   -7.1907    6.1976 H   0  0  0  0  0  0
  -26.3226  -10.1585    5.5428 H   0  0  0  0  0  0
  -27.4526   -8.4942    6.6031 H   0  0  0  0  0  0
  -26.1101   -7.4198    6.5228 H   0  0  0  0  0  0
  -27.8854   -7.9582    4.2316 H   0  0  0  0  0  0
  -27.4807   -6.4968    5.1062 H   0  0  0  0  0  0
  -26.3691   -6.5266    2.8904 H   0  0  0  0  0  0
  -25.1680   -6.5538    4.1620 H   0  0  0  0  0  0
  -26.2622   -8.9525    2.6463 H   0  0  0  0  0  0
  -24.6846   -8.2721    2.4280 H   0  0  0  0  0  0
  -23.9204   -8.8964    4.4353 H   0  0  0  0  0  0
  -24.6625  -10.3588    3.9904 H   0  0  0  0  0  0
  1  2  2  0  0  0
  2  3  1  0  0  0
  2  9  1  0  0  0
  3  4  1  0  0  0
  3 24  1  0  0  0
  3 25  1  0  0  0
  4  8  1  0  0  0
  4  5  1  0  0  0
  5  6  2  0  0  0
  5 26  1  0  0  0
  6  7  1  0  0  0
  6 27  1  0  0  0
  7  8  2  0  0  0
  8 28  1  0  0  0
  9 10  1  0  0  0
  9 11  1  0  0  0
 10 29  1  0  0  0
 10 30  1  0  0  0
 10 31  1  0  0  0
 11 12  1  0  0  0
 11 18  1  0  0  0
 11 32  1  0  0  0
 12 17  1  0  0  0
 12 13  2  0  0  0
 13 14  1  0  0  0
 13 33  1  0  0  0
 14 15  2  0  0  0
 14 34  1  0  0  0
 15 16  1  0  0  0
 15 35  1  0  0  0
 16 17  2  0  0  0
 16 36  1  0  0  0
 17 37  1  0  0  0
 18 23  1  0  0  0
 18 19  1  0  0  0
 18 38  1  0  0  0
 19 20  1  0  0  0
 19 39  1  0  0  0
 19 40  1  0  0  0
 20 21  1  0  0  0
 20 41  1  0  0  0
 20 42  1  0  0  0
 21 22  1  0  0  0
 21 43  1  0  0  0
 21 44  1  0  0  0
 22 23  1  0  0  0
 22 45  1  0  0  0
 22 46  1  0  0  0
 23 47  1  0  0  0
 23 48  1  0  0  0
M  END
> <s_m_source_file>
/home/yujie/leadopt/data/result/selection/HO1/lig_7k.sdf

> <i_m_source_file_index>
1

> <i_lp_mmshare_version>
51139

> <i_f3d_flags>
0

> <s_epik_input>
W2NIXTFuW2NIXVtjSF1uMVtDSDJdQyg9TylOKFtDSDNdKVtDQEhdKGMyW2NIXVtjSF1bY0hdW2NIXVtjSF0yKVtDSF0zW0NIMl1bQ0gyXVtDSDJdW0NIMl1bQ0gyXTM=

> <s_epik_cmdline>
J2VwaWtfcHl0aG9uJywgJy1waHQnLCAnMi4wJywgJy1waCcsICc3LjAnLCAnLXRuJywgJzgnLCAnLW1hJywgJzIwMCcsICctaW1hZScsICc8aW5maWxlLm1hZT4nLCAnLW9tYWUnLCAnPG91dGZpbGUubWFlPic=

> <r_lp_tautomer_probability>
1

> <r_epik_Ionization_Penalty>
  0.2606

> <r_epik_Ionization_Penalty_Charging>
  0.2606

> <r_epik_Ionization_Penalty_Neutral>
  0.0000

> <r_epik_State_Penalty>
  0.2523

> <r_epik_Charging_Adjusted_Penalty>
0.512979

> <i_epik_Tot_Q>
0

> <i_epik_Tot_abs_Q>
0

> <s_lp_Force_Field>
OPLS3e

> <r_lp_Energy>
30.3924

> <b_lp_Chiralities_Consistent>
1

> <s_lp_Variant>
/home/yujie/leadopt/data/result/selection/HO1/lig_7k.sdf:1-1

> <s_i_glide_gridfile>
glide-grid_HO1

> <i_i_glide_lignum>
1

> <i_i_glide_rotatable_bonds>
6

> <r_i_docking_score>
-4.83622357422258

> <r_i_glide_ligand_efficiency>
-0.21027059018359

> <r_i_glide_ligand_efficiency_sa>
-0.597981587632024

> <r_i_glide_ligand_efficiency_ln>
-1.16944271269788

> <r_i_glide_gscore>
-5.08857157422258

> <r_i_glide_lipo>
-2.31784446054445

> <r_i_glide_hbond>
-0.16

> <r_i_glide_metal>
-0

> <r_i_glide_rewards>
-2.27874528650633

> <r_i_glide_evdw>
-18.968879699707

> <r_i_glide_ecoul>
-2.13199067115784

> <r_i_glide_erotb>
0.956094903731806

> <r_i_glide_esite>
-0.0198341452445805

> <r_i_glide_emodel>
-22.7194566176788

> <r_i_glide_energy>
-21.1008703708649

> <r_i_glide_einternal>
12.6504220962524

> <i_i_glide_confnum>
39

> <i_i_glide_posenum>
50

> <r_i_glide_eff_state_penalty>
0.252348

$$$$
