/home/yujie/leadopt/data/result/selection/HO1/lig_7i.sdf:1
                    3D
 Schrodinger Suite 2020-3.
 43 45  0  0  1  0            999 V2000
  -25.4888  -11.9275    6.4516 O   0  0  0  0  0  0
  -24.5773  -11.3723    7.0688 C   0  0  0  0  0  0
  -23.5667  -12.3124    7.7613 C   0  0  0  0  0  0
  -24.1821  -13.1929    8.7502 N   0  0  0  0  0  0
  -24.7759  -14.4282    8.5097 C   0  0  0  0  0  0
  -25.1956  -14.9621    9.7268 C   0  0  0  0  0  0
  -24.8559  -14.0449   10.7063 N   0  3  0  0  0  0
  -24.2625  -12.9588   10.1097 C   0  0  0  0  0  0
  -24.4808  -10.0117    7.1433 N   0  0  0  0  0  0
  -23.4414   -9.3003    7.9048 C   0  0  0  0  0  0
  -25.5509   -9.1395    6.5752 C   0  0  0  0  0  0
  -25.0386   -8.1555    5.5038 C   0  0  0  0  0  0
  -24.3259   -6.9965    5.8411 C   0  0  0  0  0  0
  -23.8622   -6.1418    4.8453 C   0  0  0  0  0  0
  -24.1242   -6.4319    3.5081 C   0  0  0  0  0  0
  -24.8500   -7.5682    3.1627 C   0  0  0  0  0  0
  -25.3015   -8.4276    4.1587 C   0  0  0  0  0  0
  -26.5309   -8.5659    7.6249 C   0  0  0  0  0  0
  -26.9343   -9.3617    8.7074 C   0  0  0  0  0  0
  -27.8620   -8.8859    9.6305 C   0  0  0  0  0  0
  -28.3751   -7.6004    9.4910 C   0  0  0  0  0  0
  -28.0094   -6.8063    8.4095 C   0  0  0  0  0  0
  -27.1057   -7.2970    7.4724 C   0  0  0  0  0  0
  -22.7272  -11.8246    8.2460 H   0  0  0  0  0  0
  -23.1209  -12.9327    6.9842 H   0  0  0  0  0  0
  -24.8422  -14.8112    7.5008 H   0  0  0  0  0  0
  -25.6802  -15.8974    9.9792 H   0  0  0  0  0  0
  -23.8635  -12.0968   10.6264 H   0  0  0  0  0  0
  -22.5770   -9.8898    8.1880 H   0  0  0  0  0  0
  -23.0146   -8.4891    7.3198 H   0  0  0  0  0  0
  -23.8627   -8.8710    8.8167 H   0  0  0  0  0  0
  -26.2391   -9.7774    6.0200 H   0  0  0  0  0  0
  -24.1438   -6.7458    6.8755 H   0  0  0  0  0  0
  -23.3167   -5.2495    5.1149 H   0  0  0  0  0  0
  -23.7779   -5.7656    2.7316 H   0  0  0  0  0  0
  -25.0683   -7.7836    2.1273 H   0  0  0  0  0  0
  -25.8736   -9.2970    3.8771 H   0  0  0  0  0  0
  -26.5547  -10.3657    8.8208 H   0  0  0  0  0  0
  -28.1923   -9.5118   10.4455 H   0  0  0  0  0  0
  -29.0755   -7.2212   10.2201 H   0  0  0  0  0  0
  -28.4330   -5.8196    8.2875 H   0  0  0  0  0  0
  -26.8730   -6.6846    6.6172 H   0  0  0  0  0  0
  -24.9764  -14.1595   11.7086 H   0  0  0  0  0  0
  1  2  2  0  0  0
  2  3  1  0  0  0
  2  9  1  0  0  0
  3  4  1  0  0  0
  3 24  1  0  0  0
  3 25  1  0  0  0
  4  8  1  0  0  0
  4  5  1  0  0  0
  5  6  2  0  0  0
  5 26  1  0  0  0
  6  7  1  0  0  0
  6 27  1  0  0  0
  7  8  2  0  0  0
  7 43  1  0  0  0
  8 28  1  0  0  0
  9 10  1  0  0  0
  9 11  1  0  0  0
 10 29  1  0  0  0
 10 30  1  0  0  0
 10 31  1  0  0  0
 11 12  1  0  0  0
 11 18  1  0  0  0
 11 32  1  0  0  0
 12 17  1  0  0  0
 12 13  2  0  0  0
 13 14  1  0  0  0
 13 33  1  0  0  0
 14 15  2  0  0  0
 14 34  1  0  0  0
 15 16  1  0  0  0
 15 35  1  0  0  0
 16 17  2  0  0  0
 16 36  1  0  0  0
 17 37  1  0  0  0
 18 23  1  0  0  0
 18 19  2  0  0  0
 19 20  1  0  0  0
 19 38  1  0  0  0
 20 21  2  0  0  0
 20 39  1  0  0  0
 21 22  1  0  0  0
 21 40  1  0  0  0
 22 23  2  0  0  0
 22 41  1  0  0  0
 23 42  1  0  0  0
M  CHG  1   7   1
M  END
> <s_m_source_file>
/home/yujie/leadopt/data/result/selection/HO1/lig_7i.sdf

> <i_m_source_file_index>
1

> <i_lp_mmshare_version>
51139

> <i_f3d_flags>
0

> <s_epik_input>
W2NIXTFuW2NIXVtjSF1uMVtDSDJdQyg9TylOKFtDSDNdKVtDSF0oYzJbY0hdW2NIXVtjSF1bY0hdW2NIXTIpYzNbY0hdW2NIXVtjSF1bY0hdW2NIXTM=

> <s_epik_cmdline>
J2VwaWtfcHl0aG9uJywgJy1waHQnLCAnMi4wJywgJy1waCcsICc3LjAnLCAnLXRuJywgJzgnLCAnLW1hJywgJzIwMCcsICctaW1hZScsICc8aW5maWxlLm1hZT4nLCAnLW9tYWUnLCAnPG91dGZpbGUubWFlPic=

> <r_lp_tautomer_probability>
1

> <r_epik_Ionization_Penalty>
  0.6221

> <r_epik_Ionization_Penalty_Charging>
  0.0000

> <r_epik_Ionization_Penalty_Neutral>
  0.6221

> <r_epik_State_Penalty>
  0.6382

> <r_epik_Charging_Adjusted_Penalty>
0.638167

> <i_epik_Tot_Q>
1

> <i_epik_Tot_abs_Q>
1

> <s_lp_Force_Field>
OPLS3e

> <r_lp_Energy>
48.8426

> <b_lp_Chiralities_Consistent>
1

> <s_lp_Variant>
/home/yujie/leadopt/data/result/selection/HO1/lig_7i.sdf:1-2

> <s_i_glide_gridfile>
glide-grid_HO1

> <i_i_glide_lignum>
2

> <i_i_glide_rotatable_bonds>
6

> <r_i_docking_score>
-7.06925201743433

> <r_i_glide_ligand_efficiency>
-0.30735878336671

> <r_i_glide_ligand_efficiency_sa>
-0.874087494070372

> <r_i_glide_ligand_efficiency_ln>
-1.70940923824894

> <r_i_glide_gscore>
-7.70741901743433

> <r_i_glide_lipo>
-3.43718392739998

> <r_i_glide_hbond>
0

> <r_i_glide_metal>
-0

> <r_i_glide_rewards>
-2.16570181230127

> <r_i_glide_evdw>
-36.275260925293

> <r_i_glide_ecoul>
-7.84615087509155

> <r_i_glide_erotb>
0.983873748505678

> <r_i_glide_esite>
-0.0977213487103731

> <r_i_glide_emodel>
-63.5408554913512

> <r_i_glide_energy>
-44.1214118003845

> <r_i_glide_einternal>
6.16349506378174

> <i_i_glide_confnum>
29

> <i_i_glide_posenum>
281

> <r_i_glide_eff_state_penalty>
0.638167

$$$$
