/home/yujie/leadopt/data/result/selection/HO1/lig_7o.sdf:1
                    3D
 Schrodinger Suite 2020-3.
 57 60  0  0  1  0            999 V2000
  -24.6637  -13.0235    5.1455 O   0  0  0  0  0  0
  -23.8191  -12.5428    5.9062 C   0  0  0  0  0  0
  -22.6558  -13.4464    6.3812 C   0  0  0  0  0  0
  -22.4981  -14.7072    5.6558 N   0  0  0  0  0  0
  -22.4864  -15.9809    6.2128 C   0  0  0  0  0  0
  -22.2928  -16.9096    5.1920 C   0  0  0  0  0  0
  -22.1802  -16.1952    4.0118 N   0  3  0  0  0  0
  -22.2921  -14.8525    4.2949 C   0  0  0  0  0  0
  -23.8624  -11.2477    6.3168 N   0  0  0  0  0  0
  -22.8750  -10.7028    7.2730 C   0  0  0  0  0  0
  -24.9750  -10.3323    5.9058 C   0  0  2  0  0  0
  -24.6607   -8.9996    5.1537 C   0  0  0  0  0  0
  -25.4497   -8.6541    4.0484 C   0  0  0  0  0  0
  -25.2343   -7.4685    3.3494 C   0  0  0  0  0  0
  -24.2375   -6.5951    3.7679 C   0  0  0  0  0  0
  -23.4660   -6.8963    4.8863 C   0  0  0  0  0  0
  -23.6722   -8.0926    5.5693 C   0  0  0  0  0  0
  -25.8192  -10.1266    7.1420 C   0  0  0  0  0  0
  -26.4579  -11.2303    7.7204 C   0  0  0  0  0  0
  -27.1455  -11.0719    8.9094 C   0  0  0  0  0  0
  -27.1750   -9.8186    9.5089 C   0  0  0  0  0  0
  -27.8569   -9.6969   10.7003 O   0  0  0  0  0  0
  -28.2606   -8.4258   11.2260 C   0  0  0  0  0  0
  -28.9744   -7.7248   10.1353 C   0  0  0  0  0  0
  -28.5827   -6.4431    9.7630 C   0  0  0  0  0  0
  -29.0756   -5.9243    8.5838 C   0  0  0  0  0  0
  -30.0588   -6.6427    7.9064 C   0  0  0  0  0  0
  -30.4523   -7.9205    8.3047 C   0  0  0  0  0  0
  -29.8633   -8.4969    9.4004 C   0  0  0  0  0  0
  -26.5047   -8.7388    8.9450 C   0  0  0  0  0  0
  -25.8746   -8.8722    7.7436 C   0  0  0  0  0  0
  -22.8170  -13.6744    7.4361 H   0  0  0  0  0  0
  -21.7139  -12.9057    6.3062 H   0  0  0  0  0  0
  -22.6229  -16.1116    7.2778 H   0  0  0  0  0  0
  -22.2373  -17.9907    5.1962 H   0  0  0  0  0  0
  -22.2655  -14.0482    3.5733 H   0  0  0  0  0  0
  -22.3880  -11.4604    7.8876 H   0  0  0  0  0  0
  -22.0952  -10.1549    6.7482 H   0  0  0  0  0  0
  -23.3470  -10.0224    7.9821 H   0  0  0  0  0  0
  -25.6311  -10.8783    5.2260 H   0  0  0  0  0  0
  -26.2462   -9.2970    3.7227 H   0  0  0  0  0  0
  -25.8449   -7.2319    2.4920 H   0  0  0  0  0  0
  -24.0751   -5.6705    3.2363 H   0  0  0  0  0  0
  -22.7120   -6.2011    5.2253 H   0  0  0  0  0  0
  -23.0723   -8.2783    6.4465 H   0  0  0  0  0  0
  -26.4105  -12.2049    7.2573 H   0  0  0  0  0  0
  -27.6464  -11.9080    9.3733 H   0  0  0  0  0  0
  -28.9461   -8.5369   12.0664 H   0  0  0  0  0  0
  -27.4099   -7.8556   11.5869 H   0  0  0  0  0  0
  -27.8526   -5.8892   10.3424 H   0  0  0  0  0  0
  -28.7555   -4.9365    8.2707 H   0  0  0  0  0  0
  -30.5397   -6.2079    7.0446 H   0  0  0  0  0  0
  -31.2392   -8.4596    7.8064 H   0  0  0  0  0  0
  -30.1384   -9.5011    9.6975 H   0  0  0  0  0  0
  -26.4635   -7.7817    9.4283 H   0  0  0  0  0  0
  -25.3986   -7.9936    7.3476 H   0  0  0  0  0  0
  -22.0514  -16.5926    3.0883 H   0  0  0  0  0  0
  1  2  2  0  0  0
  2  3  1  0  0  0
  2  9  1  0  0  0
  3  4  1  0  0  0
  3 32  1  0  0  0
  3 33  1  0  0  0
  4  8  1  0  0  0
  4  5  1  0  0  0
  5  6  2  0  0  0
  5 34  1  0  0  0
  6  7  1  0  0  0
  6 35  1  0  0  0
  7  8  2  0  0  0
  7 57  1  0  0  0
  8 36  1  0  0  0
  9 10  1  0  0  0
  9 11  1  0  0  0
 10 37  1  0  0  0
 10 38  1  0  0  0
 10 39  1  0  0  0
 11 12  1  0  0  0
 11 18  1  0  0  0
 11 40  1  0  0  0
 12 17  1  0  0  0
 12 13  2  0  0  0
 13 14  1  0  0  0
 13 41  1  0  0  0
 14 15  2  0  0  0
 14 42  1  0  0  0
 15 16  1  0  0  0
 15 43  1  0  0  0
 16 17  2  0  0  0
 16 44  1  0  0  0
 17 45  1  0  0  0
 18 31  1  0  0  0
 18 19  2  0  0  0
 19 20  1  0  0  0
 19 46  1  0  0  0
 20 21  2  0  0  0
 20 47  1  0  0  0
 21 22  1  0  0  0
 21 30  1  0  0  0
 22 23  1  0  0  0
 23 24  1  0  0  0
 23 48  1  0  0  0
 23 49  1  0  0  0
 24 29  1  0  0  0
 24 25  2  0  0  0
 25 26  1  0  0  0
 25 50  1  0  0  0
 26 27  2  0  0  0
 26 51  1  0  0  0
 27 28  1  0  0  0
 27 52  1  0  0  0
 28 29  2  0  0  0
 28 53  1  0  0  0
 29 54  1  0  0  0
 30 31  2  0  0  0
 30 55  1  0  0  0
 31 56  1  0  0  0
M  CHG  1   7   1
M  END
> <s_m_source_file>
/home/yujie/leadopt/data/result/selection/HO1/lig_7o.sdf

> <i_m_source_file_index>
1

> <i_lp_mmshare_version>
51139

> <i_f3d_flags>
0

> <s_epik_input>
W2NIXTFuW2NIXVtjSF1uMVtDSDJdQyg9TylOKFtDSDNdKVtDQEhdKGMyW2NIXVtjSF1bY0hdW2NIXVtjSF0yKWMzW2NIXVtjSF1jKFtjSF1bY0hdMylPW0NIMl1jNFtjSF1bY0hdW2NIXVtjSF1bY0hdNA==

> <s_epik_cmdline>
J2VwaWtfcHl0aG9uJywgJy1waHQnLCAnMi4wJywgJy1waCcsICc3LjAnLCAnLXRuJywgJzgnLCAnLW1hJywgJzIwMCcsICctaW1hZScsICc8aW5maWxlLm1hZT4nLCAnLW9tYWUnLCAnPG91dGZpbGUubWFlPic=

> <r_lp_tautomer_probability>
1

> <r_epik_Ionization_Penalty>
  0.6221

> <r_epik_Ionization_Penalty_Charging>
  0.0000

> <r_epik_Ionization_Penalty_Neutral>
  0.6221

> <r_epik_State_Penalty>
  0.6382

> <r_epik_Charging_Adjusted_Penalty>
0.638167

> <i_epik_Tot_Q>
1

> <i_epik_Tot_abs_Q>
1

> <s_lp_Force_Field>
OPLS3e

> <r_lp_Energy>
56.787

> <b_lp_Chiralities_Consistent>
1

> <s_lp_Variant>
/home/yujie/leadopt/data/result/selection/HO1/lig_7o.sdf:1-2

> <s_i_glide_gridfile>
glide-grid_HO1

> <i_i_glide_lignum>
2

> <i_i_glide_rotatable_bonds>
9

> <r_i_docking_score>
-5.22267231207615

> <r_i_glide_ligand_efficiency>
-0.168473300389553

> <r_i_glide_ligand_efficiency_sa>
-0.529238765682466

> <r_i_glide_ligand_efficiency_ln>
-1.17787266205758

> <r_i_glide_gscore>
-5.86083931207615

> <r_i_glide_lipo>
-3.76555000850547

> <r_i_glide_hbond>
-0.249063321138018

> <r_i_glide_metal>
-0

> <r_i_glide_rewards>
-1.82781814391597

> <r_i_glide_evdw>
-9.49356269836426

> <r_i_glide_ecoul>
-3.11846733093262

> <r_i_glide_erotb>
0.92711054741709

> <r_i_glide_esite>
-0.00307015137567797

> <r_i_glide_emodel>
-26.3907584216429

> <r_i_glide_energy>
-12.6120300292969

> <r_i_glide_einternal>
7.11972951889038

> <i_i_glide_confnum>
200

> <i_i_glide_posenum>
325

> <r_i_glide_eff_state_penalty>
0.638167

$$$$
