/home/yujie/leadopt/data/result/selection/HO1/lig_7c.sdf:1
                    3D
 Schrodinger Suite 2020-3.
 27 28  0  0  1  0            999 V2000
  -26.1855  -12.4181    6.6815 O   0  0  0  0  0  0
  -25.3000  -11.5659    6.7059 C   0  0  0  0  0  0
  -23.9531  -11.8767    7.3985 C   0  0  0  0  0  0
  -23.7640  -13.2713    7.7888 N   0  0  0  0  0  0
  -23.0621  -14.2419    7.0828 C   0  0  0  0  0  0
  -23.1320  -15.4378    7.7928 C   0  0  0  0  0  0
  -23.8824  -15.1915    8.9303 N   0  3  0  0  0  0
  -24.2609  -13.8673    8.9330 C   0  0  0  0  0  0
  -25.5242  -10.3775    6.1067 N   0  0  0  0  0  0
  -24.7150   -9.2315    6.0789 C   0  0  0  0  0  0
  -24.6627   -8.4973    4.8870 C   0  0  0  0  0  0
  -23.8741   -7.3473    4.8011 C   0  0  0  0  0  0
  -23.7735   -6.3744    3.1675 Br  0  0  0  0  0  0
  -23.1497   -6.9161    5.9115 C   0  0  0  0  0  0
  -23.2187   -7.6312    7.1063 C   0  0  0  0  0  0
  -24.0143   -8.7670    7.2008 C   0  0  0  0  0  0
  -23.8576  -11.2940    8.3102 H   0  0  0  0  0  0
  -23.1315  -11.5879    6.7420 H   0  0  0  0  0  0
  -22.5865  -13.9966    6.1435 H   0  0  0  0  0  0
  -22.7298  -16.4215    7.5908 H   0  0  0  0  0  0
  -24.8544  -13.3757    9.6921 H   0  0  0  0  0  0
  -26.3495  -10.3396    5.5267 H   0  0  0  0  0  0
  -25.2150   -8.8233    4.0168 H   0  0  0  0  0  0
  -22.5444   -6.0231    5.8530 H   0  0  0  0  0  0
  -22.6770   -7.2965    7.9781 H   0  0  0  0  0  0
  -24.0862   -9.2479    8.1628 H   0  0  0  0  0  0
  -24.1218  -15.8714    9.6417 H   0  0  0  0  0  0
  1  2  2  0  0  0
  2  3  1  0  0  0
  2  9  1  0  0  0
  3  4  1  0  0  0
  3 17  1  0  0  0
  3 18  1  0  0  0
  4  8  1  0  0  0
  4  5  1  0  0  0
  5  6  2  0  0  0
  5 19  1  0  0  0
  6  7  1  0  0  0
  6 20  1  0  0  0
  7  8  2  0  0  0
  7 27  1  0  0  0
  8 21  1  0  0  0
  9 10  1  0  0  0
  9 22  1  0  0  0
 10 16  1  0  0  0
 10 11  2  0  0  0
 11 12  1  0  0  0
 11 23  1  0  0  0
 12 13  1  0  0  0
 12 14  2  0  0  0
 14 15  1  0  0  0
 14 24  1  0  0  0
 15 16  2  0  0  0
 15 25  1  0  0  0
 16 26  1  0  0  0
M  CHG  1   7   1
M  END
> <s_m_source_file>
/home/yujie/leadopt/data/result/selection/HO1/lig_7c.sdf

> <i_m_source_file_index>
1

> <i_lp_mmshare_version>
51139

> <i_f3d_flags>
0

> <s_epik_input>
W2NIXTFuW2NIXVtjSF1uMVtDSDJdQyg9TylbTkhdYzJbY0hdYyhCcilbY0hdW2NIXVtjSF0y

> <s_epik_cmdline>
J2VwaWtfcHl0aG9uJywgJy1waHQnLCAnMi4wJywgJy1waCcsICc3LjAnLCAnLXRuJywgJzgnLCAnLW1hJywgJzIwMCcsICctaW1hZScsICc8aW5maWxlLm1hZT4nLCAnLW9tYWUnLCAnPG91dGZpbGUubWFlPic=

> <r_lp_tautomer_probability>
1

> <r_epik_Ionization_Penalty>
  0.1671

> <r_epik_Ionization_Penalty_Charging>
  0.0000

> <r_epik_Ionization_Penalty_Neutral>
  0.1671

> <r_epik_State_Penalty>
  0.1565

> <r_epik_Charging_Adjusted_Penalty>
0.156461

> <i_epik_Tot_Q>
1

> <i_epik_Tot_abs_Q>
1

> <s_lp_Force_Field>
OPLS3e

> <r_lp_Energy>
22.5053

> <b_lp_Chiralities_Consistent>
1

> <s_lp_Variant>
/home/yujie/leadopt/data/result/selection/HO1/lig_7c.sdf:1-1

> <s_i_glide_gridfile>
glide-grid_HO1

> <i_i_glide_lignum>
1

> <i_i_glide_rotatable_bonds>
4

> <r_i_docking_score>
-3.3216389078285

> <r_i_glide_ligand_efficiency>
-0.207602431739281

> <r_i_glide_ligand_efficiency_sa>
-0.523125347031897

> <r_i_glide_ligand_efficiency_ln>
-0.88046674376327

> <r_i_glide_gscore>
-3.4780999078285

> <r_i_glide_lipo>
-1.74957154519124

> <r_i_glide_hbond>
0

> <r_i_glide_metal>
-0

> <r_i_glide_rewards>
-0.564344837692872

> <r_i_glide_evdw>
-24.9829750061035

> <r_i_glide_ecoul>
-2.41712737083435

> <r_i_glide_erotb>
0.457319449104053

> <r_i_glide_esite>
-0.0097851181181054

> <r_i_glide_emodel>
-27.4464473747973

> <r_i_glide_energy>
-27.4001023769379

> <r_i_glide_einternal>
7.06942319869995

> <i_i_glide_confnum>
4

> <i_i_glide_posenum>
274

> <r_i_glide_eff_state_penalty>
0.156461

$$$$
