/home/yujie/leadopt/data/result/selection/BCL6/lig_11a.sdf:1
                    3D
 Schrodinger Suite 2020-3.
 50 54  0  0  1  0            999 V2000
  -22.0167    8.1919   19.5944 C   0  0  0  0  0  0
  -22.4162    9.5893   19.3247 N   0  0  0  0  0  0
  -21.7809   10.5681   20.0487 C   0  0  0  0  0  0
  -20.8829   10.3480   20.8722 O   0  0  0  0  0  0
  -22.2661   11.9223   19.7820 C   0  0  0  0  0  0
  -23.1820   12.2446   18.8233 C   0  0  0  0  0  0
  -23.6824   13.5232   18.6408 N   0  0  0  0  0  0
  -22.8233   14.6864   18.4652 C   0  0  2  0  0  0
  -22.0918   15.0700   19.7610 C   0  0  0  0  0  0
  -21.0953   14.0012   20.2167 C   0  0  0  0  0  0
  -21.7247   12.8101   20.6627 O   0  0  0  0  0  0
  -23.6279   15.8787   17.9196 C   0  0  0  0  0  0
  -22.9292   16.9690   17.1401 C   0  0  0  0  0  0
  -23.8608   16.0010   16.4344 C   0  0  0  0  0  0
  -23.7718   11.1462   18.0058 C   0  0  0  0  0  0
  -24.6582   11.3930   16.9441 C   0  0  0  0  0  0
  -25.1550   10.3476   16.1663 C   0  0  0  0  0  0
  -24.8071    9.0353   16.4851 C   0  0  0  0  0  0
  -23.9303    8.7710   17.5339 C   0  0  0  0  0  0
  -23.3812    9.8187   18.2955 C   0  0  0  0  0  0
  -25.9959   10.6374   15.0811 N   0  0  0  0  0  0
  -26.0524   10.0530   13.7969 C   0  0  0  0  0  0
  -24.9573    9.3114   13.3307 C   0  0  0  0  0  0
  -24.9823    8.7804   12.0456 C   0  0  0  0  0  0
  -26.0276    8.9491   11.2085 N   0  0  0  0  0  0
  -27.0971    9.6611   11.6405 C   0  0  0  0  0  0
  -27.1539   10.2396   12.9257 C   0  0  0  0  0  0
  -28.3409   10.9959   13.3304 C   0  0  0  0  0  0
  -29.2822   11.5880   13.6464 N   0  0  0  0  0  0
  -28.3996    9.8078   10.5036 Cl  0  0  0  0  0  0
  -21.2896    8.0734   20.4011 H   0  0  0  0  0  0
  -22.8872    7.5963   19.8749 H   0  0  0  0  0  0
  -21.5719    7.7459   18.7027 H   0  0  0  0  0  0
  -24.4336   13.5687   17.9632 H   0  0  0  0  0  0
  -22.0718   14.4215   17.7186 H   0  0  0  0  0  0
  -21.5491   16.0048   19.6105 H   0  0  0  0  0  0
  -22.8132   15.2577   20.5573 H   0  0  0  0  0  0
  -20.3713   13.7763   19.4319 H   0  0  0  0  0  0
  -20.5187   14.3886   21.0572 H   0  0  0  0  0  0
  -24.4411   16.1793   18.5840 H   0  0  0  0  0  0
  -23.2524   17.9981   17.2917 H   0  0  0  0  0  0
  -21.8538   16.8913   16.9727 H   0  0  0  0  0  0
  -23.4456   15.2377   15.7752 H   0  0  0  0  0  0
  -24.8377   16.3475   16.0985 H   0  0  0  0  0  0
  -24.9265   12.4074   16.6805 H   0  0  0  0  0  0
  -25.2133    8.2144   15.9143 H   0  0  0  0  0  0
  -23.6764    7.7399   17.7266 H   0  0  0  0  0  0
  -26.6280   11.4133   15.2240 H   0  0  0  0  0  0
  -24.0764    9.1714   13.9378 H   0  0  0  0  0  0
  -24.1464    8.2149   11.6610 H   0  0  0  0  0  0
  1  2  1  0  0  0
  1 31  1  0  0  0
  1 32  1  0  0  0
  1 33  1  0  0  0
  2 20  1  0  0  0
  2  3  1  0  0  0
  3  4  2  0  0  0
  3  5  1  0  0  0
  5 11  1  0  0  0
  5  6  2  0  0  0
  6  7  1  0  0  0
  6 15  1  0  0  0
  7  8  1  0  0  0
  7 34  1  0  0  0
  8  9  1  0  0  0
  8 12  1  0  0  0
  8 35  1  0  0  0
  9 10  1  0  0  0
  9 36  1  0  0  0
  9 37  1  0  0  0
 10 11  1  0  0  0
 10 38  1  0  0  0
 10 39  1  0  0  0
 12 14  1  0  0  0
 12 13  1  0  0  0
 12 40  1  0  0  0
 13 14  1  0  0  0
 13 41  1  0  0  0
 13 42  1  0  0  0
 14 43  1  0  0  0
 14 44  1  0  0  0
 15 20  2  0  0  0
 15 16  1  0  0  0
 16 17  2  0  0  0
 16 45  1  0  0  0
 17 18  1  0  0  0
 17 21  1  0  0  0
 18 19  2  0  0  0
 18 46  1  0  0  0
 19 20  1  0  0  0
 19 47  1  0  0  0
 21 22  1  0  0  0
 21 48  1  0  0  0
 22 27  1  0  0  0
 22 23  2  0  0  0
 23 24  1  0  0  0
 23 49  1  0  0  0
 24 25  2  0  0  0
 24 50  1  0  0  0
 25 26  1  0  0  0
 26 27  2  0  0  0
 26 30  1  0  0  0
 27 28  1  0  0  0
 28 29  3  0  0  0
M  END
> <s_m_source_file>
/home/yujie/leadopt/data/result/selection/BCL6/lig_11a.sdf

> <i_m_source_file_index>
1

> <i_lp_mmshare_version>
51139

> <i_f3d_flags>
0

> <s_epik_input>
TzFbQ0gyXVtDSDJdW0NASF0oW0NIXTJbQ0gyXVtDSDJdMilbTkhdYyhjMTMpYzRjKG4oW0NIM10pYzM9TylbY0hdW2NIXWMoW2NIXTQpW05IXWM1W2NIXVtjSF1uYyhDbCljNUMjTg==

> <s_epik_cmdline>
J2VwaWtfcHl0aG9uJywgJy1waHQnLCAnMi4wJywgJy1waCcsICc3LjAnLCAnLXRuJywgJzgnLCAnLW1hJywgJzIwMCcsICctaW1hZScsICc8aW5maWxlLm1hZT4nLCAnLW9tYWUnLCAnPG91dGZpbGUubWFlPic=

> <r_epik_Ionization_Penalty>
  0.2778

> <r_epik_Ionization_Penalty_Charging>
  0.0000

> <r_epik_Ionization_Penalty_Neutral>
  0.2778

> <r_epik_State_Penalty>
  0.2702

> <r_epik_Charging_Adjusted_Penalty>
0.27018

> <i_epik_Tot_Q>
0

> <i_epik_Tot_abs_Q>
0

> <s_lp_Force_Field>
OPLS3e

> <r_lp_Energy>
62.118

> <b_lp_Chiralities_Consistent>
1

> <s_lp_Variant>
/home/yujie/leadopt/data/result/selection/BCL6/lig_11a.sdf:1-1

> <s_i_glide_gridfile>
glide-grid_BCL6

> <i_i_glide_lignum>
1

> <i_i_glide_rotatable_bonds>
3

> <r_i_docking_score>
-4.92394853799465

> <r_i_glide_ligand_efficiency>
-0.164131617933155

> <r_i_glide_ligand_efficiency_sa>
-0.5099950979185

> <r_i_glide_ligand_efficiency_ln>
-1.11877475854879

> <r_i_glide_gscore>
-5.19411653799465

> <r_i_glide_lipo>
-1.70269676810018

> <r_i_glide_hbond>
-0.464928693221638

> <r_i_glide_metal>
-0

> <r_i_glide_rewards>
-1.01523080479364

> <r_i_glide_evdw>
-33.2429237365723

> <r_i_glide_ecoul>
-4.50535202026367

> <r_i_glide_erotb>
0.33383297851395

> <r_i_glide_esite>
-0.00714426052497373

> <r_i_glide_emodel>
-47.8870093243735

> <r_i_glide_energy>
-37.7482757568359

> <r_i_glide_einternal>
2.84923768043518

> <i_i_glide_confnum>
33

> <i_i_glide_posenum>
383

> <r_i_glide_eff_state_penalty>
0.270168

$$$$
