/home/yujie/leadopt/data/result/selection/BCL6/lig_12b.sdf:1
                    3D
 Schrodinger Suite 2020-3.
 50 54  0  0  1  0            999 V2000
  -22.1980    8.2802   19.9933 C   0  0  0  0  0  0
  -22.4052    9.7037   19.6470 N   0  0  0  0  0  0
  -21.6810   10.6239   20.3550 C   0  0  0  0  0  0
  -20.8794   10.3283   21.2463 O   0  0  0  0  0  0
  -21.9511   12.0116   19.9868 C   0  0  0  0  0  0
  -22.8321   12.4137   19.0258 C   0  0  0  0  0  0
  -22.9918   13.7433   18.6554 N   0  0  0  0  0  0
  -23.2500   14.8267   19.6077 C   0  0  1  0  0  0
  -22.0853   15.0966   20.5756 C   0  0  0  0  0  0
  -21.7510   13.9047   21.4668 C   0  0  0  0  0  0
  -21.1727   12.8501   20.7221 O   0  0  0  0  0  0
  -23.6696   16.1610   18.9372 C   0  0  0  0  0  0
  -22.7554   16.8410   17.9434 C   0  0  0  0  0  0
  -24.0828   16.2714   17.4852 C   0  0  0  0  0  0
  -23.5578   11.3578   18.2468 C   0  0  0  0  0  0
  -24.4151   11.6494   17.1663 C   0  0  0  0  0  0
  -24.9866   10.6230   16.4074 C   0  0  0  0  0  0
  -24.7791    9.2987   16.7884 C   0  0  0  0  0  0
  -23.9548    8.9923   17.8613 C   0  0  0  0  0  0
  -23.3109   10.0067   18.5865 C   0  0  0  0  0  0
  -25.7422   10.9127   15.2583 N   0  0  0  0  0  0
  -25.7726   10.2051   14.0333 C   0  0  0  0  0  0
  -24.6522    9.4437   13.6680 C   0  0  0  0  0  0
  -24.6449    8.7615   12.4571 C   0  0  0  0  0  0
  -25.6824    8.8013   11.5940 N   0  0  0  0  0  0
  -26.7721    9.5369   11.9253 C   0  0  0  0  0  0
  -26.8634   10.2614   13.1334 C   0  0  0  0  0  0
  -28.0805   11.0170   13.4273 C   0  0  0  0  0  0
  -29.0498   11.6082   13.6470 N   0  0  0  0  0  0
  -28.0561    9.5192   10.7573 Cl  0  0  0  0  0  0
  -24.0828   14.4889   20.2194 H   0  0  0  0  0  0
  -21.4977    8.1085   20.8130 H   0  0  0  0  0  0
  -23.1440    7.8299   20.2941 H   0  0  0  0  0  0
  -21.8135    7.7313   19.1331 H   0  0  0  0  0  0
  -23.6051   13.8598   17.8614 H   0  0  0  0  0  0
  -21.1949   15.3962   20.0206 H   0  0  0  0  0  0
  -22.3396   15.9410   21.2182 H   0  0  0  0  0  0
  -21.0210   14.2080   22.2183 H   0  0  0  0  0  0
  -22.6289   13.5579   22.0165 H   0  0  0  0  0  0
  -24.1886   16.8101   19.6449 H   0  0  0  0  0  0
  -22.6345   17.9227   18.0072 H   0  0  0  0  0  0
  -21.8328   16.3379   17.6514 H   0  0  0  0  0  0
  -24.0794   15.3928   16.8408 H   0  0  0  0  0  0
  -24.9043   16.9465   17.2424 H   0  0  0  0  0  0
  -24.5940   12.6719   16.8696 H   0  0  0  0  0  0
  -25.2455    8.4952   16.2370 H   0  0  0  0  0  0
  -23.8126    7.9480   18.0925 H   0  0  0  0  0  0
  -26.3520   11.7133   15.3277 H   0  0  0  0  0  0
  -23.7799    9.3933   14.3024 H   0  0  0  0  0  0
  -23.7896    8.1737   12.1558 H   0  0  0  0  0  0
  1  2  1  0  0  0
  1 32  1  0  0  0
  1 33  1  0  0  0
  1 34  1  0  0  0
  2 20  1  0  0  0
  2  3  1  0  0  0
  3  4  2  0  0  0
  3  5  1  0  0  0
  5 11  1  0  0  0
  5  6  2  0  0  0
  6  7  1  0  0  0
  6 15  1  0  0  0
  7  8  1  0  0  0
  7 35  1  0  0  0
  8 31  1  0  0  0
  8  9  1  0  0  0
  8 12  1  0  0  0
  9 10  1  0  0  0
  9 36  1  0  0  0
  9 37  1  0  0  0
 10 11  1  0  0  0
 10 38  1  0  0  0
 10 39  1  0  0  0
 12 14  1  0  0  0
 12 13  1  0  0  0
 12 40  1  0  0  0
 13 14  1  0  0  0
 13 41  1  0  0  0
 13 42  1  0  0  0
 14 43  1  0  0  0
 14 44  1  0  0  0
 15 20  2  0  0  0
 15 16  1  0  0  0
 16 17  2  0  0  0
 16 45  1  0  0  0
 17 18  1  0  0  0
 17 21  1  0  0  0
 18 19  2  0  0  0
 18 46  1  0  0  0
 19 20  1  0  0  0
 19 47  1  0  0  0
 21 22  1  0  0  0
 21 48  1  0  0  0
 22 27  1  0  0  0
 22 23  2  0  0  0
 23 24  1  0  0  0
 23 49  1  0  0  0
 24 25  2  0  0  0
 24 50  1  0  0  0
 25 26  1  0  0  0
 26 27  2  0  0  0
 26 30  1  0  0  0
 27 28  1  0  0  0
 28 29  3  0  0  0
M  END
> <s_m_source_file>
/home/yujie/leadopt/data/result/selection/BCL6/lig_12b.sdf

> <i_m_source_file_index>
1

> <i_lp_mmshare_version>
51139

> <i_f3d_flags>
0

> <s_epik_input>
TzFbQ0gyXVtDSDJdW0NAQEhdKFtDSF0yW0NIMl1bQ0gyXTIpW05IXWMoYzEzKWM0YyhuKFtDSDNdKWMzPU8pW2NIXVtjSF1jKFtjSF00KVtOSF1jNVtjSF1bY0hdbmMoQ2wpYzVDI04=

> <s_epik_cmdline>
J2VwaWtfcHl0aG9uJywgJy1waHQnLCAnMi4wJywgJy1waCcsICc3LjAnLCAnLXRuJywgJzgnLCAnLW1hJywgJzIwMCcsICctaW1hZScsICc8aW5maWxlLm1hZT4nLCAnLW9tYWUnLCAnPG91dGZpbGUubWFlPic=

> <r_epik_Ionization_Penalty>
  0.2778

> <r_epik_Ionization_Penalty_Charging>
  0.0000

> <r_epik_Ionization_Penalty_Neutral>
  0.2778

> <r_epik_State_Penalty>
  0.2702

> <r_epik_Charging_Adjusted_Penalty>
0.27018

> <i_epik_Tot_Q>
0

> <i_epik_Tot_abs_Q>
0

> <s_lp_Force_Field>
OPLS3e

> <r_lp_Energy>
62.1635

> <b_lp_Chiralities_Consistent>
1

> <s_lp_Variant>
/home/yujie/leadopt/data/result/selection/BCL6/lig_12b.sdf:1-1

> <s_i_glide_gridfile>
glide-grid_BCL6

> <i_i_glide_lignum>
1

> <i_i_glide_rotatable_bonds>
3

> <r_i_docking_score>
-5.13886278293754

> <r_i_glide_ligand_efficiency>
-0.171295426097918

> <r_i_glide_ligand_efficiency_sa>
-0.532254715489234

> <r_i_glide_ligand_efficiency_ln>
-1.16760561667807

> <r_i_glide_gscore>
-5.40903078293754

> <r_i_glide_lipo>
-1.99607440959508

> <r_i_glide_hbond>
-0.310151928643411

> <r_i_glide_metal>
-0

> <r_i_glide_rewards>
-0.940551564867968

> <r_i_glide_evdw>
-33.0782012939453

> <r_i_glide_ecoul>
-5.61450529098511

> <r_i_glide_erotb>
0.33383297851395

> <r_i_glide_esite>
0

> <r_i_glide_emodel>
-44.4357455049765

> <r_i_glide_energy>
-38.6927065849304

> <r_i_glide_einternal>
12.7804002761841

> <i_i_glide_confnum>
31

> <i_i_glide_posenum>
148

> <r_i_glide_eff_state_penalty>
0.270168

$$$$
