/home/yujie/leadopt/data/result/selection/BCL6/lig_2.sdf:1
                    3D
 Schrodinger Suite 2020-3.
 38 40  0  0  1  0            999 V2000
  -23.4174   15.1184   20.7421 C   0  0  0  0  0  0
  -23.0699   14.7463   19.2928 C   0  0  0  0  0  0
  -23.6543   13.4867   18.8469 N   0  0  0  0  0  0
  -23.1840   12.2127   19.1061 C   0  0  0  0  0  0
  -22.2173   11.9308   20.0152 C   0  0  0  0  0  0
  -21.7353   10.5948   20.3092 C   0  0  0  0  0  0
  -20.8828   10.3321   21.1495 O   0  0  0  0  0  0
  -22.3436    9.6295   19.5916 N   0  0  0  0  0  0
  -23.3087    9.8105   18.5891 C   0  0  0  0  0  0
  -23.7561    8.7137   17.8565 C   0  0  0  0  0  0
  -24.6460    8.9049   16.7992 C   0  0  0  0  0  0
  -25.0816   10.1906   16.4561 C   0  0  0  0  0  0
  -24.6724   11.2813   17.2284 C   0  0  0  0  0  0
  -23.7772   11.1064   18.2970 C   0  0  0  0  0  0
  -25.9043   10.4217   15.3412 N   0  0  0  0  0  0
  -25.8689    9.8606   14.0444 C   0  0  0  0  0  0
  -24.7567    9.1046   13.6454 C   0  0  0  0  0  0
  -24.7027    8.5859   12.3566 C   0  0  0  0  0  0
  -25.6818    8.7871   11.4487 N   0  0  0  0  0  0
  -26.7578    9.5286   11.8101 C   0  0  0  0  0  0
  -26.8950   10.0906   13.0967 C   0  0  0  0  0  0
  -28.0830   10.8865   13.4104 C   0  0  0  0  0  0
  -29.0251   11.5145   13.6470 N   0  0  0  0  0  0
  -27.9647    9.7251   10.5786 Cl  0  0  0  0  0  0
  -22.9065   16.0360   21.0346 H   0  0  0  0  0  0
  -24.4833   15.2942   20.8625 H   0  0  0  0  0  0
  -23.1269   14.3409   21.4490 H   0  0  0  0  0  0
  -21.9871   14.7037   19.1627 H   0  0  0  0  0  0
  -23.4219   15.5347   18.6256 H   0  0  0  0  0  0
  -21.7671   12.7237   20.5891 H   0  0  0  0  0  0
  -23.4019    7.7196   18.0864 H   0  0  0  0  0  0
  -24.9832    8.0504   16.2312 H   0  0  0  0  0  0
  -25.0004   12.2701   16.9501 H   0  0  0  0  0  0
  -26.5985   11.1437   15.4752 H   0  0  0  0  0  0
  -23.9219    8.9351   14.3067 H   0  0  0  0  0  0
  -23.8532    8.0044   12.0277 H   0  0  0  0  0  0
  -24.3797   13.6163   18.1533 H   0  0  0  0  0  0
  -22.0015    8.7079   19.8085 H   0  0  0  0  0  0
  1  2  1  0  0  0
  1 25  1  0  0  0
  1 26  1  0  0  0
  1 27  1  0  0  0
  2  3  1  0  0  0
  2 28  1  0  0  0
  2 29  1  0  0  0
  3  4  1  0  0  0
  3 37  1  0  0  0
  4 14  1  0  0  0
  4  5  2  0  0  0
  5  6  1  0  0  0
  5 30  1  0  0  0
  6  7  2  0  0  0
  6  8  1  0  0  0
  8  9  1  0  0  0
  8 38  1  0  0  0
  9 14  2  0  0  0
  9 10  1  0  0  0
 10 11  2  0  0  0
 10 31  1  0  0  0
 11 12  1  0  0  0
 11 32  1  0  0  0
 12 13  2  0  0  0
 12 15  1  0  0  0
 13 14  1  0  0  0
 13 33  1  0  0  0
 15 16  1  0  0  0
 15 34  1  0  0  0
 16 21  1  0  0  0
 16 17  2  0  0  0
 17 18  1  0  0  0
 17 35  1  0  0  0
 18 19  2  0  0  0
 18 36  1  0  0  0
 19 20  1  0  0  0
 20 21  2  0  0  0
 20 24  1  0  0  0
 21 22  1  0  0  0
 22 23  3  0  0  0
M  END
> <s_m_source_file>
/home/yujie/leadopt/data/result/selection/BCL6/lig_2.sdf

> <i_m_source_file_index>
1

> <i_lp_mmshare_version>
51139

> <i_f3d_flags>
0

> <s_epik_input>
W0NIM11bQ0gyXVtOSF1jKFtjSF1jKD1PKVtuSF0xKWMoYzEyKVtjSF1jKFtjSF1bY0hdMilbTkhdYzNbY0hdW2NIXW5jKENsKWMzQyNO

> <s_epik_cmdline>
J2VwaWtfcHl0aG9uJywgJy1waHQnLCAnMi4wJywgJy1waCcsICc3LjAnLCAnLXRuJywgJzgnLCAnLW1hJywgJzIwMCcsICctaW1hZScsICc8aW5maWxlLm1hZT4nLCAnLW9tYWUnLCAnPG91dGZpbGUubWFlPic=

> <r_epik_Ionization_Penalty>
  0.0046

> <r_epik_Ionization_Penalty_Charging>
  0.0000

> <r_epik_Ionization_Penalty_Neutral>
  0.0046

> <r_epik_State_Penalty>
  0.0033

> <r_epik_Charging_Adjusted_Penalty>
0.00329938

> <i_epik_Tot_Q>
0

> <i_epik_Tot_abs_Q>
0

> <s_lp_Force_Field>
OPLS3e

> <r_lp_Energy>
31.8013

> <b_lp_Chiralities_Consistent>
1

> <s_lp_Variant>
/home/yujie/leadopt/data/result/selection/BCL6/lig_2.sdf:1-1

> <s_i_glide_gridfile>
glide-grid_BCL6

> <i_i_glide_lignum>
1

> <i_i_glide_rotatable_bonds>
4

> <r_i_docking_score>
-5.7655577644979

> <r_i_glide_ligand_efficiency>
-0.240231573520746

> <r_i_glide_ligand_efficiency_sa>
-0.692947766635061

> <r_i_glide_ligand_efficiency_ln>
-1.37996253725092

> <r_i_glide_gscore>
-5.7688549544979

> <r_i_glide_lipo>
-2.0023164417256

> <r_i_glide_hbond>
-0.448481452367801

> <r_i_glide_metal>
-0

> <r_i_glide_rewards>
-1.38352975591246

> <r_i_glide_evdw>
-29.5941009521484

> <r_i_glide_ecoul>
-6.31133270263672

> <r_i_glide_erotb>
0.491877648510897

> <r_i_glide_esite>
0

> <r_i_glide_emodel>
-46.5337273825186

> <r_i_glide_energy>
-35.9054336547852

> <r_i_glide_einternal>
3.37539505958557

> <i_i_glide_confnum>
1

> <i_i_glide_posenum>
98

> <r_i_glide_eff_state_penalty>
0.00329719

$$$$
