/home/yujie/leadopt/data/result/selection/BCL6/lig_11e.sdf:1
                    3D
 Schrodinger Suite 2020-3.
 46 49  0  0  1  0            999 V2000
  -21.7052    8.1255   19.7060 C   0  0  0  0  0  0
  -22.2359    9.4863   19.4702 N   0  0  0  0  0  0
  -21.7333   10.4955   20.2531 C   0  0  0  0  0  0
  -20.8829   10.3278   21.1348 O   0  0  0  0  0  0
  -22.3095   11.8116   19.9769 C   0  0  0  0  0  0
  -23.2332   12.0690   19.0047 C   0  0  0  0  0  0
  -23.6831   13.3435   18.6905 N   0  0  0  0  0  0
  -22.9353   14.5651   18.9755 C   0  0  2  0  0  0
  -22.9383   14.9143   20.4810 C   0  0  0  0  0  0
  -22.7294   13.7112   21.4114 C   0  0  0  0  0  0
  -21.8456   12.7403   20.8618 O   0  0  0  0  0  0
  -23.4191   15.7421   18.1024 C   0  0  0  0  0  0
  -23.2821   15.4961   16.7994 F   0  0  0  0  0  0
  -22.7871   16.8834   18.3771 F   0  0  0  0  0  0
  -23.7331   10.9351   18.1776 C   0  0  0  0  0  0
  -24.6720   11.1122   17.1455 C   0  0  0  0  0  0
  -25.0577   10.0438   16.3385 C   0  0  0  0  0  0
  -24.5808    8.7652   16.6270 C   0  0  0  0  0  0
  -23.6713    8.5676   17.6623 C   0  0  0  0  0  0
  -23.2139    9.6478   18.4377 C   0  0  0  0  0  0
  -25.9063   10.2919   15.2482 N   0  0  0  0  0  0
  -25.8741    9.7801   13.9307 C   0  0  0  0  0  0
  -24.7499    9.0664   13.4891 C   0  0  0  0  0  0
  -24.7066    8.5890   12.1846 C   0  0  0  0  0  0
  -25.7031    8.7973   11.2986 N   0  0  0  0  0  0
  -26.7891    9.5040   11.6993 C   0  0  0  0  0  0
  -26.9188   10.0192   13.0060 C   0  0  0  0  0  0
  -28.1187   10.7758   13.3684 C   0  0  0  0  0  0
  -29.0691   11.3735   13.6473 N   0  0  0  0  0  0
  -28.0204    9.7131   10.4945 Cl  0  0  0  0  0  0
  -20.9230    8.0685   20.4650 H   0  0  0  0  0  0
  -21.2713    7.7230   18.7890 H   0  0  0  0  0  0
  -22.5079    7.4590   20.0254 H   0  0  0  0  0  0
  -24.2205   13.4175   17.8361 H   0  0  0  0  0  0
  -21.9015   14.3657   18.6867 H   0  0  0  0  0  0
  -22.1559   15.6494   20.6701 H   0  0  0  0  0  0
  -23.8747   15.4008   20.7541 H   0  0  0  0  0  0
  -22.3234   14.0485   22.3660 H   0  0  0  0  0  0
  -23.6848   13.2395   21.6481 H   0  0  0  0  0  0
  -24.4796   15.9362   18.2687 H   0  0  0  0  0  0
  -25.0692   12.0919   16.9214 H   0  0  0  0  0  0
  -24.9074    7.9206   16.0404 H   0  0  0  0  0  0
  -23.3180    7.5620   17.8325 H   0  0  0  0  0  0
  -26.5889   11.0193   15.4067 H   0  0  0  0  0  0
  -23.9012    8.8951   14.1321 H   0  0  0  0  0  0
  -23.8481    8.0391   11.8245 H   0  0  0  0  0  0
  1  2  1  0  0  0
  1 31  1  0  0  0
  1 32  1  0  0  0
  1 33  1  0  0  0
  2 20  1  0  0  0
  2  3  1  0  0  0
  3  4  2  0  0  0
  3  5  1  0  0  0
  5 11  1  0  0  0
  5  6  2  0  0  0
  6  7  1  0  0  0
  6 15  1  0  0  0
  7  8  1  0  0  0
  7 34  1  0  0  0
  8  9  1  0  0  0
  8 12  1  0  0  0
  8 35  1  0  0  0
  9 10  1  0  0  0
  9 36  1  0  0  0
  9 37  1  0  0  0
 10 11  1  0  0  0
 10 38  1  0  0  0
 10 39  1  0  0  0
 12 13  1  0  0  0
 12 14  1  0  0  0
 12 40  1  0  0  0
 15 20  2  0  0  0
 15 16  1  0  0  0
 16 17  2  0  0  0
 16 41  1  0  0  0
 17 18  1  0  0  0
 17 21  1  0  0  0
 18 19  2  0  0  0
 18 42  1  0  0  0
 19 20  1  0  0  0
 19 43  1  0  0  0
 21 22  1  0  0  0
 21 44  1  0  0  0
 22 27  1  0  0  0
 22 23  2  0  0  0
 23 24  1  0  0  0
 23 45  1  0  0  0
 24 25  2  0  0  0
 24 46  1  0  0  0
 25 26  1  0  0  0
 26 27  2  0  0  0
 26 30  1  0  0  0
 27 28  1  0  0  0
 28 29  3  0  0  0
M  END
> <s_m_source_file>
/home/yujie/leadopt/data/result/selection/BCL6/lig_11e.sdf

> <i_m_source_file_index>
1

> <i_lp_mmshare_version>
51139

> <i_f3d_flags>
0

> <s_epik_input>
TzFbQ0gyXVtDSDJdW0NASF0oW0NIXShGKUYpW05IXWMoYzEyKWMzYyhuKFtDSDNdKWMyPU8pW2NIXVtjSF1jKFtjSF0zKVtOSF1jNFtjSF1bY0hdbmMoQ2wpYzRDI04=

> <s_epik_cmdline>
J2VwaWtfcHl0aG9uJywgJy1waHQnLCAnMi4wJywgJy1waCcsICc3LjAnLCAnLXRuJywgJzgnLCAnLW1hJywgJzIwMCcsICctaW1hZScsICc8aW5maWxlLm1hZT4nLCAnLW9tYWUnLCAnPG91dGZpbGUubWFlPic=

> <r_epik_Ionization_Penalty>
  0.0019

> <r_epik_Ionization_Penalty_Charging>
  0.0000

> <r_epik_Ionization_Penalty_Neutral>
  0.0019

> <r_epik_State_Penalty>
  0.0012

> <r_epik_Charging_Adjusted_Penalty>
0.00121324

> <i_epik_Tot_Q>
0

> <i_epik_Tot_abs_Q>
0

> <s_lp_Force_Field>
OPLS3e

> <r_lp_Energy>
62.1614

> <b_lp_Chiralities_Consistent>
1

> <s_lp_Variant>
/home/yujie/leadopt/data/result/selection/BCL6/lig_11e.sdf:1-1

> <s_i_glide_gridfile>
glide-grid_BCL6

> <i_i_glide_lignum>
1

> <i_i_glide_rotatable_bonds>
3

> <r_i_docking_score>
-5.93444555711615

> <r_i_glide_ligand_efficiency>
-0.197814851903872

> <r_i_glide_ligand_efficiency_sa>
-0.614656737299303

> <r_i_glide_ligand_efficiency_ln>
-1.34837069154007

> <r_i_glide_gscore>
-5.93565533711615

> <r_i_glide_lipo>
-2.18072237963033

> <r_i_glide_hbond>
-0.366548293897218

> <r_i_glide_metal>
-0

> <r_i_glide_rewards>
-0.921712276121465

> <r_i_glide_evdw>
-34.1023139953613

> <r_i_glide_ecoul>
-6.31039381027222

> <r_i_glide_erotb>
0.213365144837422

> <r_i_glide_esite>
-0.0283627609956674

> <r_i_glide_emodel>
-51.0952692397339

> <r_i_glide_energy>
-40.4127078056335

> <r_i_glide_einternal>
5.93777132034302

> <i_i_glide_confnum>
4

> <i_i_glide_posenum>
21

> <r_i_glide_eff_state_penalty>
0.00120978

$$$$
