/home/yujie/leadopt/data/result/selection/BCL6/lig_6.sdf:1
                    3D
 Schrodinger Suite 2020-3.
 43 46  0  0  1  0            999 V2000
  -23.6187   15.4246   20.3564 C   0  0  0  0  0  0
  -22.6693   14.8840   19.2703 C   0  0  1  0  0  0
  -21.3111   14.3853   19.8294 C   0  0  0  0  0  0
  -21.4613   13.1663   20.5742 O   0  0  0  0  0  0
  -22.1301   12.1738   19.9056 C   0  0  0  0  0  0
  -23.0473   12.4347   18.9345 C   0  0  0  0  0  0
  -23.2927   13.7510   18.5841 N   0  0  0  0  0  0
  -23.7202   11.3219   18.2126 C   0  0  0  0  0  0
  -24.6223   11.5273   17.1550 C   0  0  0  0  0  0
  -25.1323   10.4450   16.4355 C   0  0  0  0  0  0
  -24.8085    9.1481   16.8337 C   0  0  0  0  0  0
  -23.9381    8.9303   17.8970 C   0  0  0  0  0  0
  -23.3632   10.0092   18.5897 C   0  0  0  0  0  0
  -22.4176    9.8182   19.6466 N   0  0  0  0  0  0
  -22.0958    8.4287   20.0377 C   0  0  0  0  0  0
  -21.7451   10.8201   20.3022 C   0  0  0  0  0  0
  -20.8831   10.6233   21.1651 O   0  0  0  0  0  0
  -25.9424   10.6726   15.3120 N   0  0  0  0  0  0
  -25.9262   10.0331   14.0509 C   0  0  0  0  0  0
  -24.7999    9.2863   13.6767 C   0  0  0  0  0  0
  -24.7525    8.6929   12.4209 C   0  0  0  0  0  0
  -25.7550    8.8068   11.5237 N   0  0  0  0  0  0
  -26.8514    9.5286   11.8654 C   0  0  0  0  0  0
  -26.9806   10.1670   13.1166 C   0  0  0  0  0  0
  -28.1928   10.9292   13.4180 C   0  0  0  0  0  0
  -29.1558   11.5278   13.6471 N   0  0  0  0  0  0
  -28.0932    9.6060   10.6558 Cl  0  0  0  0  0  0
  -23.1156   16.1639   20.9794 H   0  0  0  0  0  0
  -23.9775   14.6318   21.0167 H   0  0  0  0  0  0
  -24.4821   15.9288   19.9176 H   0  0  0  0  0  0
  -22.4885   15.6718   18.5379 H   0  0  0  0  0  0
  -20.6205   14.2058   19.0022 H   0  0  0  0  0  0
  -20.8515   15.1428   20.4654 H   0  0  0  0  0  0
  -24.0597   13.9959   17.9705 H   0  0  0  0  0  0
  -24.8813   12.5285   16.8442 H   0  0  0  0  0  0
  -25.2235    8.3010   16.3070 H   0  0  0  0  0  0
  -23.7108    7.9068   18.1523 H   0  0  0  0  0  0
  -21.3633    8.3426   20.8410 H   0  0  0  0  0  0
  -21.6900    7.8809   19.1874 H   0  0  0  0  0  0
  -22.9945    7.9147   20.3795 H   0  0  0  0  0  0
  -26.6124   11.4216   15.4144 H   0  0  0  0  0  0
  -23.9524    9.1817   14.3367 H   0  0  0  0  0  0
  -23.8892    8.1223   12.1102 H   0  0  0  0  0  0
  1  2  1  0  0  0
  1 28  1  0  0  0
  1 29  1  0  0  0
  1 30  1  0  0  0
  2  7  1  0  0  0
  2  3  1  0  0  0
  2 31  1  0  0  0
  3  4  1  0  0  0
  3 32  1  0  0  0
  3 33  1  0  0  0
  4  5  1  0  0  0
  5 16  1  0  0  0
  5  6  2  0  0  0
  6  7  1  0  0  0
  6  8  1  0  0  0
  7 34  1  0  0  0
  8 13  2  0  0  0
  8  9  1  0  0  0
  9 10  2  0  0  0
  9 35  1  0  0  0
 10 11  1  0  0  0
 10 18  1  0  0  0
 11 12  2  0  0  0
 11 36  1  0  0  0
 12 13  1  0  0  0
 12 37  1  0  0  0
 13 14  1  0  0  0
 14 15  1  0  0  0
 14 16  1  0  0  0
 15 38  1  0  0  0
 15 39  1  0  0  0
 15 40  1  0  0  0
 16 17  2  0  0  0
 18 19  1  0  0  0
 18 41  1  0  0  0
 19 24  1  0  0  0
 19 20  2  0  0  0
 20 21  1  0  0  0
 20 42  1  0  0  0
 21 22  2  0  0  0
 21 43  1  0  0  0
 22 23  1  0  0  0
 23 24  2  0  0  0
 23 27  1  0  0  0
 24 25  1  0  0  0
 25 26  3  0  0  0
M  END
> <s_m_source_file>
/home/yujie/leadopt/data/result/selection/BCL6/lig_6.sdf

> <i_m_source_file_index>
1

> <i_lp_mmshare_version>
51139

> <i_f3d_flags>
0

> <s_epik_input>
TzFbQ0gyXVtDQEhdKFtDSDNdKVtOSF1jKGMxMiljM2MobihbQ0gzXSljMj1PKVtjSF1bY0hdYyhbY0hdMylbTkhdYzRbY0hdW2NIXW5jKENsKWM0QyNO

> <s_epik_cmdline>
J2VwaWtfcHl0aG9uJywgJy1waHQnLCAnMi4wJywgJy1waCcsICc3LjAnLCAnLXRuJywgJzgnLCAnLW1hJywgJzIwMCcsICctaW1hZScsICc8aW5maWxlLm1hZT4nLCAnLW9tYWUnLCAnPG91dGZpbGUubWFlPic=

> <r_epik_Ionization_Penalty>
  0.1147

> <r_epik_Ionization_Penalty_Charging>
  0.0000

> <r_epik_Ionization_Penalty_Neutral>
  0.1147

> <r_epik_State_Penalty>
  0.1043

> <r_epik_Charging_Adjusted_Penalty>
0.104314

> <i_epik_Tot_Q>
0

> <i_epik_Tot_abs_Q>
0

> <s_lp_Force_Field>
OPLS3e

> <r_lp_Energy>
53.0967

> <b_lp_Chiralities_Consistent>
1

> <s_lp_Variant>
/home/yujie/leadopt/data/result/selection/BCL6/lig_6.sdf:1-1

> <s_i_glide_gridfile>
glide-grid_BCL6

> <i_i_glide_lignum>
1

> <i_i_glide_rotatable_bonds>
2

> <r_i_docking_score>
-5.68461544945195

> <r_i_glide_ligand_efficiency>
-0.210541312942665

> <r_i_glide_ligand_efficiency_sa>
-0.631623938134085

> <r_i_glide_ligand_efficiency_ln>
-1.32328475842225

> <r_i_glide_gscore>
-5.78892444945195

> <r_i_glide_lipo>
-1.98254366441489

> <r_i_glide_hbond>
-0.332242465017728

> <r_i_glide_metal>
-0

> <r_i_glide_rewards>
-1.23405995488652

> <r_i_glide_evdw>
-31.3025188446045

> <r_i_glide_ecoul>
-6.22209167480469

> <r_i_glide_erotb>
0.266355754690395

> <r_i_glide_esite>
-0.00799442637228079

> <r_i_glide_emodel>
-47.868386660009

> <r_i_glide_energy>
-37.5246105194092

> <r_i_glide_einternal>
4.70740795135498

> <i_i_glide_confnum>
4

> <i_i_glide_posenum>
204

> <r_i_glide_eff_state_penalty>
0.104309

$$$$
