/home/yujie/leadopt/data/result/selection/BCL6/lig_11b.sdf:1
                    3D
 Schrodinger Suite 2020-3.
 49 52  0  0  1  0            999 V2000
  -23.1812   15.6054   16.7294 C   0  0  0  0  0  0
  -23.4219   15.7734   18.2387 C   0  0  0  0  0  0
  -22.9356   14.5782   19.0856 C   0  0  1  0  0  0
  -22.9521   14.9146   20.5901 C   0  0  0  0  0  0
  -22.7431   13.7029   21.5091 C   0  0  0  0  0  0
  -21.8544   12.7364   20.9585 O   0  0  0  0  0  0
  -22.3099   11.8182   20.0553 C   0  0  0  0  0  0
  -23.2304   12.0822   19.0818 C   0  0  0  0  0  0
  -23.6827   13.3605   18.7842 N   0  0  0  0  0  0
  -23.7214   10.9559   18.2363 C   0  0  0  0  0  0
  -24.6694   11.1347   17.2107 C   0  0  0  0  0  0
  -25.0446   10.0727   16.3887 C   0  0  0  0  0  0
  -24.5495    8.7973   16.6610 C   0  0  0  0  0  0
  -23.6361    8.5962   17.6916 C   0  0  0  0  0  0
  -23.1884    9.6714   18.4781 C   0  0  0  0  0  0
  -22.2033    9.5062   19.5054 N   0  0  0  0  0  0
  -21.6507    8.1502   19.7122 C   0  0  0  0  0  0
  -21.7225   10.5043   20.3143 C   0  0  0  0  0  0
  -20.8825   10.3285   21.2040 O   0  0  0  0  0  0
  -25.8937   10.3155   15.2960 N   0  0  0  0  0  0
  -25.8387    9.8131   13.9747 C   0  0  0  0  0  0
  -24.6878    9.1412   13.5355 C   0  0  0  0  0  0
  -24.6155    8.6788   12.2261 C   0  0  0  0  0  0
  -25.6132    8.8564   11.3347 N   0  0  0  0  0  0
  -26.7257    9.5201   11.7332 C   0  0  0  0  0  0
  -26.8839   10.0197   13.0426 C   0  0  0  0  0  0
  -28.1133   10.7306   13.3902 C   0  0  0  0  0  0
  -29.0900   11.2930   13.6501 N   0  0  0  0  0  0
  -27.9529    9.6904   10.5177 Cl  0  0  0  0  0  0
  -23.5531   16.4691   16.1788 H   0  0  0  0  0  0
  -23.6904   14.7253   16.3363 H   0  0  0  0  0  0
  -22.1188   15.5011   16.5070 H   0  0  0  0  0  0
  -22.9116   16.6808   18.5648 H   0  0  0  0  0  0
  -24.4837   15.9480   18.4191 H   0  0  0  0  0  0
  -21.8984   14.3806   18.8076 H   0  0  0  0  0  0
  -22.1741   15.6524   20.7894 H   0  0  0  0  0  0
  -23.8953   15.3919   20.8610 H   0  0  0  0  0  0
  -22.3475   14.0333   22.4694 H   0  0  0  0  0  0
  -23.6984   13.2251   21.7330 H   0  0  0  0  0  0
  -24.2221   13.4530   17.9337 H   0  0  0  0  0  0
  -25.0774   12.1125   17.0029 H   0  0  0  0  0  0
  -24.8635    7.9560   16.0600 H   0  0  0  0  0  0
  -23.2717    7.5925   17.8466 H   0  0  0  0  0  0
  -20.8626    8.0928   20.4657 H   0  0  0  0  0  0
  -21.2156    7.7731   18.7851 H   0  0  0  0  0  0
  -22.4407    7.4657   20.0229 H   0  0  0  0  0  0
  -26.6062   11.0123   15.4633 H   0  0  0  0  0  0
  -23.8372    8.9949   14.1820 H   0  0  0  0  0  0
  -23.7370    8.1613   11.8688 H   0  0  0  0  0  0
  1  2  1  0  0  0
  1 30  1  0  0  0
  1 31  1  0  0  0
  1 32  1  0  0  0
  2  3  1  0  0  0
  2 33  1  0  0  0
  2 34  1  0  0  0
  3  9  1  0  0  0
  3  4  1  0  0  0
  3 35  1  0  0  0
  4  5  1  0  0  0
  4 36  1  0  0  0
  4 37  1  0  0  0
  5  6  1  0  0  0
  5 38  1  0  0  0
  5 39  1  0  0  0
  6  7  1  0  0  0
  7 18  1  0  0  0
  7  8  2  0  0  0
  8  9  1  0  0  0
  8 10  1  0  0  0
  9 40  1  0  0  0
 10 15  2  0  0  0
 10 11  1  0  0  0
 11 12  2  0  0  0
 11 41  1  0  0  0
 12 13  1  0  0  0
 12 20  1  0  0  0
 13 14  2  0  0  0
 13 42  1  0  0  0
 14 15  1  0  0  0
 14 43  1  0  0  0
 15 16  1  0  0  0
 16 17  1  0  0  0
 16 18  1  0  0  0
 17 44  1  0  0  0
 17 45  1  0  0  0
 17 46  1  0  0  0
 18 19  2  0  0  0
 20 21  1  0  0  0
 20 47  1  0  0  0
 21 26  1  0  0  0
 21 22  2  0  0  0
 22 23  1  0  0  0
 22 48  1  0  0  0
 23 24  2  0  0  0
 23 49  1  0  0  0
 24 25  1  0  0  0
 25 26  2  0  0  0
 25 29  1  0  0  0
 26 27  1  0  0  0
 27 28  3  0  0  0
M  END
> <s_m_source_file>
/home/yujie/leadopt/data/result/selection/BCL6/lig_11b.sdf

> <i_m_source_file_index>
1

> <i_lp_mmshare_version>
51139

> <i_f3d_flags>
0

> <s_epik_input>
TzFbQ0gyXVtDSDJdW0NASF0oW0NIMl1bQ0gzXSlbTkhdYyhjMTIpYzNjKG4oW0NIM10pYzI9TylbY0hdW2NIXWMoW2NIXTMpW05IXWM0W2NIXVtjSF1uYyhDbCljNEMjTg==

> <s_epik_cmdline>
J2VwaWtfcHl0aG9uJywgJy1waHQnLCAnMi4wJywgJy1waCcsICc3LjAnLCAnLXRuJywgJzgnLCAnLW1hJywgJzIwMCcsICctaW1hZScsICc8aW5maWxlLm1hZT4nLCAnLW9tYWUnLCAnPG91dGZpbGUubWFlPic=

> <r_epik_Ionization_Penalty>
  0.2731

> <r_epik_Ionization_Penalty_Charging>
  0.0000

> <r_epik_Ionization_Penalty_Neutral>
  0.2731

> <r_epik_State_Penalty>
  0.2653

> <r_epik_Charging_Adjusted_Penalty>
0.265294

> <i_epik_Tot_Q>
0

> <i_epik_Tot_abs_Q>
0

> <s_lp_Force_Field>
OPLS3e

> <r_lp_Energy>
60.2756

> <b_lp_Chiralities_Consistent>
1

> <s_lp_Variant>
/home/yujie/leadopt/data/result/selection/BCL6/lig_11b.sdf:1-1

> <s_i_glide_gridfile>
glide-grid_BCL6

> <i_i_glide_lignum>
1

> <i_i_glide_rotatable_bonds>
3

> <r_i_docking_score>
-5.84037246624947

> <r_i_glide_ligand_efficiency>
-0.201392154008603

> <r_i_glide_ligand_efficiency_sa>
-0.618740502627251

> <r_i_glide_ligand_efficiency_ln>
-1.33729719570372

> <r_i_glide_gscore>
-6.10566146624947

> <r_i_glide_lipo>
-2.2089166942385

> <r_i_glide_hbond>
-0.359063750210913

> <r_i_glide_metal>
-0

> <r_i_glide_rewards>
-1.06194841149596

> <r_i_glide_evdw>
-33.9666862487793

> <r_i_glide_ecoul>
-6.74581050872803

> <r_i_glide_erotb>
0.234473278444073

> <r_i_glide_esite>
0

> <r_i_glide_emodel>
-53.1184940566898

> <r_i_glide_energy>
-40.7124967575073

> <r_i_glide_einternal>
2.07293701171875

> <i_i_glide_confnum>
1

> <i_i_glide_posenum>
155

> <r_i_glide_eff_state_penalty>
0.265289

$$$$
