/home/yujie/leadopt/data/result/selection/BCL6/lig_13b.sdf:1
                    3D
 Schrodinger Suite 2020-3.
 52 55  0  0  1  0            999 V2000
  -23.6057   15.7116   18.0308 C   0  0  0  0  0  0
  -22.8388   14.5759   18.7223 C   0  0  1  0  0  0
  -22.3049   15.0308   20.0874 C   0  0  0  0  0  0
  -21.3234   14.0754   20.7981 C   0  0  0  0  0  0
  -19.9827   13.9709   20.0337 C   0  0  0  0  0  0
  -21.0472   14.5880   22.2262 C   0  0  0  0  0  0
  -21.7648   12.7331   21.0115 O   0  0  0  0  0  0
  -22.2662   11.8664   20.0770 C   0  0  0  0  0  0
  -23.1493   12.1547   19.0807 C   0  0  0  0  0  0
  -23.6828   13.4050   18.8571 N   0  0  0  0  0  0
  -23.6652   11.0387   18.2297 C   0  0  0  0  0  0
  -24.5602   11.2488   17.1631 C   0  0  0  0  0  0
  -24.9774   10.1890   16.3545 C   0  0  0  0  0  0
  -24.5588    8.8947   16.6654 C   0  0  0  0  0  0
  -23.6848    8.6667   17.7240 C   0  0  0  0  0  0
  -23.2060    9.7321   18.5093 C   0  0  0  0  0  0
  -22.2578    9.5359   19.5607 N   0  0  0  0  0  0
  -21.7826    8.1576   19.8031 C   0  0  0  0  0  0
  -21.7294   10.5292   20.3480 C   0  0  0  0  0  0
  -20.8837   10.3278   21.2294 O   0  0  0  0  0  0
  -25.8056   10.4522   15.2516 N   0  0  0  0  0  0
  -25.8106    9.8859   13.9555 C   0  0  0  0  0  0
  -24.7019    9.1442   13.5253 C   0  0  0  0  0  0
  -24.6816    8.6170   12.2392 C   0  0  0  0  0  0
  -25.6904    8.7995   11.3606 N   0  0  0  0  0  0
  -26.7656    9.5284   11.7535 C   0  0  0  0  0  0
  -26.8690   10.0966   13.0396 C   0  0  0  0  0  0
  -28.0610   10.8724   13.3868 C   0  0  0  0  0  0
  -29.0060   11.4839   13.6472 N   0  0  0  0  0  0
  -28.0157    9.7001   10.5586 Cl  0  0  0  0  0  0
  -22.9805   16.5943   17.8972 H   0  0  0  0  0  0
  -24.4830   16.0141   18.6023 H   0  0  0  0  0  0
  -23.9506   15.4118   17.0385 H   0  0  0  0  0  0
  -21.9996   14.3177   18.0737 H   0  0  0  0  0  0
  -21.8103   15.9970   19.9678 H   0  0  0  0  0  0
  -23.1546   15.2262   20.7464 H   0  0  0  0  0  0
  -19.5277   14.9506   19.8834 H   0  0  0  0  0  0
  -20.1152   13.5109   19.0547 H   0  0  0  0  0  0
  -19.2655   13.3487   20.5731 H   0  0  0  0  0  0
  -20.6360   15.5985   22.2217 H   0  0  0  0  0  0
  -20.3410   13.9427   22.7523 H   0  0  0  0  0  0
  -21.9618   14.6021   22.8211 H   0  0  0  0  0  0
  -24.3811   13.4150   18.1237 H   0  0  0  0  0  0
  -24.9035   12.2440   16.9189 H   0  0  0  0  0  0
  -24.9071    8.0556   16.0797 H   0  0  0  0  0  0
  -23.3808    7.6470   17.9119 H   0  0  0  0  0  0
  -21.0475    8.0655   20.6062 H   0  0  0  0  0  0
  -21.3116    7.7564   18.9032 H   0  0  0  0  0  0
  -22.6216    7.5107   20.0683 H   0  0  0  0  0  0
  -26.4891   11.1812   15.4030 H   0  0  0  0  0  0
  -23.8432    8.9913   14.1584 H   0  0  0  0  0  0
  -23.8365    8.0423   11.8855 H   0  0  0  0  0  0
  1  2  1  0  0  0
  1 31  1  0  0  0
  1 32  1  0  0  0
  1 33  1  0  0  0
  2 10  1  0  0  0
  2  3  1  0  0  0
  2 34  1  0  0  0
  3  4  1  0  0  0
  3 35  1  0  0  0
  3 36  1  0  0  0
  4  5  1  0  0  0
  4  6  1  0  0  0
  4  7  1  0  0  0
  5 37  1  0  0  0
  5 38  1  0  0  0
  5 39  1  0  0  0
  6 40  1  0  0  0
  6 41  1  0  0  0
  6 42  1  0  0  0
  7  8  1  0  0  0
  8 19  1  0  0  0
  8  9  2  0  0  0
  9 10  1  0  0  0
  9 11  1  0  0  0
 10 43  1  0  0  0
 11 16  2  0  0  0
 11 12  1  0  0  0
 12 13  2  0  0  0
 12 44  1  0  0  0
 13 14  1  0  0  0
 13 21  1  0  0  0
 14 15  2  0  0  0
 14 45  1  0  0  0
 15 16  1  0  0  0
 15 46  1  0  0  0
 16 17  1  0  0  0
 17 18  1  0  0  0
 17 19  1  0  0  0
 18 47  1  0  0  0
 18 48  1  0  0  0
 18 49  1  0  0  0
 19 20  2  0  0  0
 21 22  1  0  0  0
 21 50  1  0  0  0
 22 27  1  0  0  0
 22 23  2  0  0  0
 23 24  1  0  0  0
 23 51  1  0  0  0
 24 25  2  0  0  0
 24 52  1  0  0  0
 25 26  1  0  0  0
 26 27  2  0  0  0
 26 30  1  0  0  0
 27 28  1  0  0  0
 28 29  3  0  0  0
M  END
> <s_m_source_file>
/home/yujie/leadopt/data/result/selection/BCL6/lig_13b.sdf

> <i_m_source_file_index>
1

> <i_lp_mmshare_version>
51139

> <i_f3d_flags>
0

> <s_epik_input>
W0NIM11DKE8xKShbQ0gzXSlbQ0gyXVtDQEhdKFtDSDNdKVtOSF1jKGMxMiljM2MobihbQ0gzXSljMj1PKVtjSF1bY0hdYyhbY0hdMylbTkhdYzRbY0hdW2NIXW5jKENsKWM0QyNO

> <s_epik_cmdline>
J2VwaWtfcHl0aG9uJywgJy1waHQnLCAnMi4wJywgJy1waCcsICc3LjAnLCAnLXRuJywgJzgnLCAnLW1hJywgJzIwMCcsICctaW1hZScsICc8aW5maWxlLm1hZT4nLCAnLW9tYWUnLCAnPG91dGZpbGUubWFlPic=

> <r_epik_Ionization_Penalty>
  0.5493

> <r_epik_Ionization_Penalty_Charging>
  0.0000

> <r_epik_Ionization_Penalty_Neutral>
  0.5493

> <r_epik_State_Penalty>
  0.5595

> <r_epik_Charging_Adjusted_Penalty>
0.559492

> <i_epik_Tot_Q>
0

> <i_epik_Tot_abs_Q>
0

> <s_lp_Force_Field>
OPLS3e

> <r_lp_Energy>
58.9988

> <b_lp_Chiralities_Consistent>
1

> <s_lp_Variant>
/home/yujie/leadopt/data/result/selection/BCL6/lig_13b.sdf:1-2

> <s_i_glide_gridfile>
glide-grid_BCL6

> <i_i_glide_lignum>
2

> <i_i_glide_rotatable_bonds>
2

> <r_i_docking_score>
-5.42239799618432

> <r_i_glide_ligand_efficiency>
-0.180746599872811

> <r_i_glide_ligand_efficiency_sa>
-0.561621709828705

> <r_i_glide_ligand_efficiency_ln>
-1.23202790649132

> <r_i_glide_gscore>
-5.98187699618432

> <r_i_glide_lipo>
-2.2622299494827

> <r_i_glide_hbond>
-0.391999634440557

> <r_i_glide_metal>
-0

> <r_i_glide_rewards>
-0.942365635164467

> <r_i_glide_evdw>
-34.6785850524902

> <r_i_glide_ecoul>
-5.81331443786621

> <r_i_glide_erotb>
0.220644641207846

> <r_i_glide_esite>
0

> <r_i_glide_emodel>
-52.2933185703682

> <r_i_glide_energy>
-40.4918994903564

> <r_i_glide_einternal>
2.62831497192383

> <i_i_glide_confnum>
1

> <i_i_glide_posenum>
360

> <r_i_glide_eff_state_penalty>
0.559479

$$$$
