/home/yujie/leadopt/data/result/selection/BCL6/lig_11d.sdf:1
                    3D
 Schrodinger Suite 2020-3.
 53 56  0  0  1  0            999 V2000
  -21.5371   16.6215   17.3572 C   0  0  0  0  0  0
  -22.7681   15.7155   17.5548 C   0  0  0  0  0  0
  -24.0232   16.5602   17.8478 C   0  0  0  0  0  0
  -22.5005   14.5967   18.5983 C   0  0  1  0  0  0
  -22.3061   15.0697   20.0575 C   0  0  0  0  0  0
  -22.4531   13.9522   21.1011 C   0  0  0  0  0  0
  -21.7674   12.7668   20.7158 O   0  0  0  0  0  0
  -22.3178   11.8536   19.8611 C   0  0  0  0  0  0
  -23.2418   12.1299   18.8912 C   0  0  0  0  0  0
  -23.5967   13.5121   18.5119 N   0  3  0  0  0  0
  -23.8159   11.0094   18.1030 C   0  0  0  0  0  0
  -24.7567   11.2176   17.0811 C   0  0  0  0  0  0
  -25.2026   10.1529   16.3001 C   0  0  0  0  0  0
  -24.7850    8.8579   16.6052 C   0  0  0  0  0  0
  -23.8796    8.6331   17.6392 C   0  0  0  0  0  0
  -23.3641    9.7029   18.3908 C   0  0  0  0  0  0
  -22.3823    9.5137   19.4150 N   0  0  0  0  0  0
  -21.9305    8.1306   19.6842 C   0  0  0  0  0  0
  -21.7878   10.5163   20.1402 C   0  0  0  0  0  0
  -20.8830   10.3298   20.9634 O   0  0  0  0  0  0
  -26.0522   10.4143   15.2146 N   0  0  0  0  0  0
  -26.0430    9.8748   13.9069 C   0  0  0  0  0  0
  -24.9310    9.1440   13.4638 C   0  0  0  0  0  0
  -24.9037    8.6481   12.1658 C   0  0  0  0  0  0
  -25.9139    8.8425   11.2908 N   0  0  0  0  0  0
  -26.9933    9.5551   11.6965 C   0  0  0  0  0  0
  -27.0999   10.1030   12.9925 C   0  0  0  0  0  0
  -28.2845   10.8804   13.3601 C   0  0  0  0  0  0
  -29.2208   11.4975   13.6470 N   0  0  0  0  0  0
  -28.2431    9.7468   10.5073 Cl  0  0  0  0  0  0
  -21.2947   17.1807   18.2619 H   0  0  0  0  0  0
  -21.7036   17.3467   16.5600 H   0  0  0  0  0  0
  -20.6562   16.0411   17.0825 H   0  0  0  0  0  0
  -22.9422   15.2261   16.5930 H   0  0  0  0  0  0
  -23.8911   17.2201   18.7054 H   0  0  0  0  0  0
  -24.8829   15.9293   18.0507 H   0  0  0  0  0  0
  -24.2807   17.1908   16.9959 H   0  0  0  0  0  0
  -21.6144   14.0438   18.2765 H   0  0  0  0  0  0
  -21.3190   15.5248   20.1509 H   0  0  0  0  0  0
  -23.0155   15.8577   20.3126 H   0  0  0  0  0  0
  -22.0396   14.2875   22.0531 H   0  0  0  0  0  0
  -23.5053   13.7327   21.3008 H   0  0  0  0  0  0
  -24.3962   13.8180   19.0448 H   0  0  0  0  0  0
  -25.1088   12.2104   16.8426 H   0  0  0  0  0  0
  -25.1600    8.0226   16.0321 H   0  0  0  0  0  0
  -23.5757    7.6137   17.8226 H   0  0  0  0  0  0
  -21.1671    8.0443   20.4594 H   0  0  0  0  0  0
  -21.5065    7.6851   18.7837 H   0  0  0  0  0  0
  -22.7716    7.5150   20.0050 H   0  0  0  0  0  0
  -26.7491   11.1272   15.3872 H   0  0  0  0  0  0
  -24.0740    8.9765   14.0974 H   0  0  0  0  0  0
  -24.0554    8.0878   11.8019 H   0  0  0  0  0  0
  -23.9052   13.5024   17.5482 H   0  0  0  0  0  0
  1  2  1  0  0  0
  1 31  1  0  0  0
  1 32  1  0  0  0
  1 33  1  0  0  0
  2  3  1  0  0  0
  2  4  1  0  0  0
  2 34  1  0  0  0
  3 35  1  0  0  0
  3 36  1  0  0  0
  3 37  1  0  0  0
  4 10  1  0  0  0
  4  5  1  0  0  0
  4 38  1  0  0  0
  5  6  1  0  0  0
  5 39  1  0  0  0
  5 40  1  0  0  0
  6  7  1  0  0  0
  6 41  1  0  0  0
  6 42  1  0  0  0
  7  8  1  0  0  0
  8 19  1  0  0  0
  8  9  2  0  0  0
  9 10  1  0  0  0
  9 11  1  0  0  0
 10 43  1  0  0  0
 10 53  1  0  0  0
 11 16  2  0  0  0
 11 12  1  0  0  0
 12 13  2  0  0  0
 12 44  1  0  0  0
 13 14  1  0  0  0
 13 21  1  0  0  0
 14 15  2  0  0  0
 14 45  1  0  0  0
 15 16  1  0  0  0
 15 46  1  0  0  0
 16 17  1  0  0  0
 17 18  1  0  0  0
 17 19  1  0  0  0
 18 47  1  0  0  0
 18 48  1  0  0  0
 18 49  1  0  0  0
 19 20  2  0  0  0
 21 22  1  0  0  0
 21 50  1  0  0  0
 22 27  1  0  0  0
 22 23  2  0  0  0
 23 24  1  0  0  0
 23 51  1  0  0  0
 24 25  2  0  0  0
 24 52  1  0  0  0
 25 26  1  0  0  0
 26 27  2  0  0  0
 26 30  1  0  0  0
 27 28  1  0  0  0
 28 29  3  0  0  0
M  CHG  1  10   1
M  END
> <s_m_source_file>
/home/yujie/leadopt/data/result/selection/BCL6/lig_11d.sdf

> <i_m_source_file_index>
1

> <i_lp_mmshare_version>
51139

> <i_f3d_flags>
0

> <s_epik_input>
TzFbQ0gyXVtDSDJdW0NASF0oW0NIXShbQ0gzXSlbQ0gzXSlbTkhdYyhjMTIpYzNjKG4oW0NIM10pYzI9TylbY0hdW2NIXWMoW2NIXTMpW05IXWM0W2NIXVtjSF1uYyhDbCljNEMjTg==

> <s_epik_cmdline>
J2VwaWtfcHl0aG9uJywgJy1waHQnLCAnMi4wJywgJy1waCcsICc3LjAnLCAnLXRuJywgJzgnLCAnLW1hJywgJzIwMCcsICctaW1hZScsICc8aW5maWxlLm1hZT4nLCAnLW9tYWUnLCAnPG91dGZpbGUubWFlPic=

> <r_epik_Ionization_Penalty>
  0.5847

> <r_epik_Ionization_Penalty_Charging>
  0.5846

> <r_epik_Ionization_Penalty_Neutral>
  0.0001

> <r_epik_State_Penalty>
  0.5977

> <r_epik_Charging_Adjusted_Penalty>
1.18235

> <i_epik_Tot_Q>
1

> <i_epik_Tot_abs_Q>
1

> <s_lp_Force_Field>
OPLS3e

> <r_lp_Energy>
59.5642

> <b_lp_Chiralities_Consistent>
1

> <s_lp_Variant>
/home/yujie/leadopt/data/result/selection/BCL6/lig_11d.sdf:1-2

> <s_i_glide_gridfile>
glide-grid_BCL6

> <i_i_glide_lignum>
2

> <i_i_glide_rotatable_bonds>
3

> <r_i_docking_score>
-5.08274273859124

> <r_i_glide_ligand_efficiency>
-0.169424757953041

> <r_i_glide_ligand_efficiency_sa>
-0.526442114628211

> <r_i_glide_ligand_efficiency_ln>
-1.15485453112573

> <r_i_glide_gscore>
-5.68044673859124

> <r_i_glide_lipo>
-2.06064372182992

> <r_i_glide_hbond>
-0.309885644735993

> <r_i_glide_metal>
-0

> <r_i_glide_rewards>
-1.00423825646672

> <r_i_glide_evdw>
-32.8954811096191

> <r_i_glide_ecoul>
-5.81287813186646

> <r_i_glide_erotb>
0.219698550054112

> <r_i_glide_esite>
-0.00867189035180083

> <r_i_glide_emodel>
-49.0436536244996

> <r_i_glide_energy>
-38.7083592414856

> <r_i_glide_einternal>
7.25437593460083

> <i_i_glide_confnum>
1

> <i_i_glide_posenum>
160

> <r_i_glide_eff_state_penalty>
0.597704

$$$$
