/home/yujie/leadopt/data/result/selection/BCL6/lig_13a.sdf:1
                    3D
 Schrodinger Suite 2020-3.
 49 52  0  0  1  0            999 V2000
  -23.4739   15.8909   17.9133 C   0  0  0  0  0  0
  -22.8866   14.7305   18.7325 C   0  0  1  0  0  0
  -22.7070   15.1282   20.2122 C   0  0  0  0  0  0
  -22.4465   13.9506   21.1695 C   0  0  2  0  0  0
  -21.7108   14.3878   22.4444 C   0  0  0  0  0  0
  -21.6582   12.9346   20.5580 O   0  0  0  0  0  0
  -22.2412   11.9870   19.7653 C   0  0  0  0  0  0
  -23.2352   12.2436   18.8662 C   0  0  0  0  0  0
  -23.6828   13.5214   18.5647 N   0  0  0  0  0  0
  -23.8287   11.1012   18.1126 C   0  0  0  0  0  0
  -24.7848   11.2811   17.0974 C   0  0  0  0  0  0
  -25.2279   10.2029   16.3341 C   0  0  0  0  0  0
  -24.7910    8.9175   16.6499 C   0  0  0  0  0  0
  -23.8642    8.7179   17.6681 C   0  0  0  0  0  0
  -23.3459    9.8043   18.3938 C   0  0  0  0  0  0
  -22.3336    9.6389   19.3899 N   0  0  0  0  0  0
  -21.8760    8.2629   19.6800 C   0  0  0  0  0  0
  -21.7021   10.6585   20.0545 C   0  0  0  0  0  0
  -20.7711   10.4915   20.8487 O   0  0  0  0  0  0
  -26.0823   10.4389   15.2473 N   0  0  0  0  0  0
  -26.0507    9.8994   13.9410 C   0  0  0  0  0  0
  -24.9172    9.1930   13.5104 C   0  0  0  0  0  0
  -24.8687    8.6913   12.2148 C   0  0  0  0  0  0
  -25.8753    8.8592   11.3304 N   0  0  0  0  0  0
  -26.9748    9.5479   11.7248 C   0  0  0  0  0  0
  -27.1048   10.0975   13.0183 C   0  0  0  0  0  0
  -28.3121   10.8464   13.3729 C   0  0  0  0  0  0
  -29.2679   11.4376   13.6467 N   0  0  0  0  0  0
  -28.2195    9.7034   10.5261 Cl  0  0  0  0  0  0
  -21.8995   14.5049   18.3231 H   0  0  0  0  0  0
  -23.4039   13.5153   21.4691 H   0  0  0  0  0  0
  -22.8573   16.7867   17.9958 H   0  0  0  0  0  0
  -24.4815   16.1482   18.2445 H   0  0  0  0  0  0
  -23.5349   15.6346   16.8549 H   0  0  0  0  0  0
  -21.8836   15.8413   20.2661 H   0  0  0  0  0  0
  -23.5876   15.6661   20.5672 H   0  0  0  0  0  0
  -22.3190   15.0698   23.0389 H   0  0  0  0  0  0
  -20.7731   14.8910   22.2065 H   0  0  0  0  0  0
  -21.4620   13.5290   23.0641 H   0  0  0  0  0  0
  -24.3169   13.5954   17.7802 H   0  0  0  0  0  0
  -25.1416   12.2689   16.8466 H   0  0  0  0  0  0
  -25.1582    8.0693   16.0915 H   0  0  0  0  0  0
  -23.5419    7.7052   17.8563 H   0  0  0  0  0  0
  -21.1037    8.1949   20.4483 H   0  0  0  0  0  0
  -21.4639    7.8019   18.7815 H   0  0  0  0  0  0
  -22.7127    7.6545   20.0244 H   0  0  0  0  0  0
  -26.7967   11.1333   15.4168 H   0  0  0  0  0  0
  -24.0631    9.0491   14.1537 H   0  0  0  0  0  0
  -24.0027    8.1491   11.8617 H   0  0  0  0  0  0
  1  2  1  0  0  0
  1 32  1  0  0  0
  1 33  1  0  0  0
  1 34  1  0  0  0
  2 30  1  0  0  0
  2  9  1  0  0  0
  2  3  1  0  0  0
  3  4  1  0  0  0
  3 35  1  0  0  0
  3 36  1  0  0  0
  4 31  1  0  0  0
  4  5  1  0  0  0
  4  6  1  0  0  0
  5 37  1  0  0  0
  5 38  1  0  0  0
  5 39  1  0  0  0
  6  7  1  0  0  0
  7 18  1  0  0  0
  7  8  2  0  0  0
  8  9  1  0  0  0
  8 10  1  0  0  0
  9 40  1  0  0  0
 10 15  2  0  0  0
 10 11  1  0  0  0
 11 12  2  0  0  0
 11 41  1  0  0  0
 12 13  1  0  0  0
 12 20  1  0  0  0
 13 14  2  0  0  0
 13 42  1  0  0  0
 14 15  1  0  0  0
 14 43  1  0  0  0
 15 16  1  0  0  0
 16 17  1  0  0  0
 16 18  1  0  0  0
 17 44  1  0  0  0
 17 45  1  0  0  0
 17 46  1  0  0  0
 18 19  2  0  0  0
 20 21  1  0  0  0
 20 47  1  0  0  0
 21 26  1  0  0  0
 21 22  2  0  0  0
 22 23  1  0  0  0
 22 48  1  0  0  0
 23 24  2  0  0  0
 23 49  1  0  0  0
 24 25  1  0  0  0
 25 26  2  0  0  0
 25 29  1  0  0  0
 26 27  1  0  0  0
 27 28  3  0  0  0
M  END
> <s_m_source_file>
/home/yujie/leadopt/data/result/selection/BCL6/lig_13a.sdf

> <i_m_source_file_index>
1

> <i_lp_mmshare_version>
51139

> <i_f3d_flags>
0

> <s_epik_input>
W0NIM11bQ0BIXShPMSlbQ0gyXVtDQEhdKFtDSDNdKVtOSF1jKGMxMiljM2MobihbQ0gzXSljMj1PKVtjSF1bY0hdYyhbY0hdMylbTkhdYzRbY0hdW2NIXW5jKENsKWM0QyNO

> <s_epik_cmdline>
J2VwaWtfcHl0aG9uJywgJy1waHQnLCAnMi4wJywgJy1waCcsICc3LjAnLCAnLXRuJywgJzgnLCAnLW1hJywgJzIwMCcsICctaW1hZScsICc8aW5maWxlLm1hZT4nLCAnLW9tYWUnLCAnPG91dGZpbGUubWFlPic=

> <r_epik_Ionization_Penalty>
  0.4746

> <r_epik_Ionization_Penalty_Charging>
  0.0000

> <r_epik_Ionization_Penalty_Neutral>
  0.4746

> <r_epik_State_Penalty>
  0.4790

> <r_epik_Charging_Adjusted_Penalty>
0.478987

> <i_epik_Tot_Q>
0

> <i_epik_Tot_abs_Q>
0

> <s_lp_Force_Field>
OPLS3e

> <r_lp_Energy>
59.4179

> <b_lp_Chiralities_Consistent>
1

> <s_lp_Variant>
/home/yujie/leadopt/data/result/selection/BCL6/lig_13a.sdf:1-2

> <s_i_glide_gridfile>
glide-grid_BCL6

> <i_i_glide_lignum>
2

> <i_i_glide_rotatable_bonds>
2

> <r_i_docking_score>
-5.75885670851607

> <r_i_glide_ligand_efficiency>
-0.198581265810899

> <r_i_glide_ligand_efficiency_sa>
-0.610104563532018

> <r_i_glide_ligand_efficiency_ln>
-1.31863215424404

> <r_i_glide_gscore>
-6.23783270851607

> <r_i_glide_lipo>
-2.42394868338555

> <r_i_glide_hbond>
-0.408379233893362

> <r_i_glide_metal>
-0

> <r_i_glide_rewards>
-1.10371081031003

> <r_i_glide_evdw>
-36.5670776367188

> <r_i_glide_ecoul>
-4.65460777282715

> <r_i_glide_erotb>
0.234473278444073

> <r_i_glide_esite>
-0.00972221161119164

> <r_i_glide_emodel>
-52.6783252860955

> <r_i_glide_energy>
-41.2216854095459

> <r_i_glide_einternal>
5.60251522064209

> <i_i_glide_confnum>
4

> <i_i_glide_posenum>
48

> <r_i_glide_eff_state_penalty>
0.478976

$$$$
