/home/yujie/leadopt/data/result/selection/BCL6/lig_12a.sdf:1
                    3D
 Schrodinger Suite 2020-3.
 50 54  0  0  1  0            999 V2000
  -22.0168    8.1904   19.5939 C   0  0  0  0  0  0
  -22.4177    9.5882   19.3254 N   0  0  0  0  0  0
  -21.7821   10.5669   20.0494 C   0  0  0  0  0  0
  -20.8842   10.3467   20.8732 O   0  0  0  0  0  0
  -22.2665   11.9216   19.7826 C   0  0  0  0  0  0
  -23.1834   12.2435   18.8246 C   0  0  0  0  0  0
  -23.6823   13.5228   18.6428 N   0  0  0  0  0  0
  -22.8226   14.6851   18.4651 C   0  0  2  0  0  0
  -22.0908   15.0700   19.7600 C   0  0  0  0  0  0
  -21.0953   14.0010   20.2167 C   0  0  0  0  0  0
  -21.7238   12.8098   20.6624 O   0  0  0  0  0  0
  -23.6292   15.8761   17.9203 C   0  0  0  0  0  0
  -22.9307   16.9671   17.1424 C   0  0  0  0  0  0
  -23.8611   15.9997   16.4348 C   0  0  0  0  0  0
  -23.7745   11.1445   18.0094 C   0  0  0  0  0  0
  -24.6602   11.3915   16.9478 C   0  0  0  0  0  0
  -25.1585   10.3467   16.1703 C   0  0  0  0  0  0
  -24.8115    9.0342   16.4901 C   0  0  0  0  0  0
  -23.9355    8.7696   17.5395 C   0  0  0  0  0  0
  -23.3843    9.8172   18.2991 C   0  0  0  0  0  0
  -25.9990   10.6357   15.0847 N   0  0  0  0  0  0
  -26.0549   10.0515   13.8002 C   0  0  0  0  0  0
  -24.9597    9.3102   13.3340 C   0  0  0  0  0  0
  -24.9848    8.7790   12.0490 C   0  0  0  0  0  0
  -26.0288    8.9488   11.2111 N   0  0  0  0  0  0
  -27.0985    9.6610   11.6427 C   0  0  0  0  0  0
  -27.1554   10.2389   12.9280 C   0  0  0  0  0  0
  -28.3417   10.9970   13.3313 C   0  0  0  0  0  0
  -29.2812   11.5920   13.6463 N   0  0  0  0  0  0
  -28.3995    9.8099   10.5035 Cl  0  0  0  0  0  0
  -22.0714   14.4184   17.7178 H   0  0  0  0  0  0
  -21.2878    8.0699   20.3995 H   0  0  0  0  0  0
  -22.8869    7.5941   19.8750 H   0  0  0  0  0  0
  -21.5712    7.7446   18.7022 H   0  0  0  0  0  0
  -24.4326   13.5698   17.9644 H   0  0  0  0  0  0
  -21.5472   16.0043   19.6068 H   0  0  0  0  0  0
  -22.8118   15.2604   20.5565 H   0  0  0  0  0  0
  -20.3721   13.7752   19.4326 H   0  0  0  0  0  0
  -20.5189   14.3902   21.0571 H   0  0  0  0  0  0
  -24.4411   16.1761   18.5862 H   0  0  0  0  0  0
  -23.2547   17.9963   17.2923 H   0  0  0  0  0  0
  -21.8551   16.8902   16.9760 H   0  0  0  0  0  0
  -23.4459   15.2351   15.7773 H   0  0  0  0  0  0
  -24.8368   16.3479   16.0963 H   0  0  0  0  0  0
  -24.9286   12.4057   16.6846 H   0  0  0  0  0  0
  -25.2189    8.2122   15.9206 H   0  0  0  0  0  0
  -23.6816    7.7377   17.7329 H   0  0  0  0  0  0
  -26.6304   11.4117   15.2284 H   0  0  0  0  0  0
  -24.0789    9.1697   13.9413 H   0  0  0  0  0  0
  -24.1496    8.2135   11.6630 H   0  0  0  0  0  0
  1  2  1  0  0  0
  1 32  1  0  0  0
  1 33  1  0  0  0
  1 34  1  0  0  0
  2 20  1  0  0  0
  2  3  1  0  0  0
  3  4  2  0  0  0
  3  5  1  0  0  0
  5 11  1  0  0  0
  5  6  2  0  0  0
  6  7  1  0  0  0
  6 15  1  0  0  0
  7  8  1  0  0  0
  7 35  1  0  0  0
  8 31  1  0  0  0
  8  9  1  0  0  0
  8 12  1  0  0  0
  9 10  1  0  0  0
  9 36  1  0  0  0
  9 37  1  0  0  0
 10 11  1  0  0  0
 10 38  1  0  0  0
 10 39  1  0  0  0
 12 14  1  0  0  0
 12 13  1  0  0  0
 12 40  1  0  0  0
 13 14  1  0  0  0
 13 41  1  0  0  0
 13 42  1  0  0  0
 14 43  1  0  0  0
 14 44  1  0  0  0
 15 20  2  0  0  0
 15 16  1  0  0  0
 16 17  2  0  0  0
 16 45  1  0  0  0
 17 18  1  0  0  0
 17 21  1  0  0  0
 18 19  2  0  0  0
 18 46  1  0  0  0
 19 20  1  0  0  0
 19 47  1  0  0  0
 21 22  1  0  0  0
 21 48  1  0  0  0
 22 27  1  0  0  0
 22 23  2  0  0  0
 23 24  1  0  0  0
 23 49  1  0  0  0
 24 25  2  0  0  0
 24 50  1  0  0  0
 25 26  1  0  0  0
 26 27  2  0  0  0
 26 30  1  0  0  0
 27 28  1  0  0  0
 28 29  3  0  0  0
M  END
> <s_m_source_file>
/home/yujie/leadopt/data/result/selection/BCL6/lig_12a.sdf

> <i_m_source_file_index>
1

> <i_lp_mmshare_version>
51139

> <i_f3d_flags>
0

> <s_epik_input>
TzFbQ0gyXVtDSDJdW0NASF0oW0NIXTJbQ0gyXVtDSDJdMilbTkhdYyhjMTMpYzRjKG4oW0NIM10pYzM9TylbY0hdW2NIXWMoW2NIXTQpW05IXWM1W2NIXVtjSF1uYyhDbCljNUMjTg==

> <s_epik_cmdline>
J2VwaWtfcHl0aG9uJywgJy1waHQnLCAnMi4wJywgJy1waCcsICc3LjAnLCAnLXRuJywgJzgnLCAnLW1hJywgJzIwMCcsICctaW1hZScsICc8aW5maWxlLm1hZT4nLCAnLW9tYWUnLCAnPG91dGZpbGUubWFlPic=

> <r_epik_Ionization_Penalty>
  0.2778

> <r_epik_Ionization_Penalty_Charging>
  0.0000

> <r_epik_Ionization_Penalty_Neutral>
  0.2778

> <r_epik_State_Penalty>
  0.2702

> <r_epik_Charging_Adjusted_Penalty>
0.27018

> <i_epik_Tot_Q>
0

> <i_epik_Tot_abs_Q>
0

> <s_lp_Force_Field>
OPLS3e

> <r_lp_Energy>
62.0669

> <b_lp_Chiralities_Consistent>
1

> <s_lp_Variant>
/home/yujie/leadopt/data/result/selection/BCL6/lig_12a.sdf:1-1

> <s_i_glide_gridfile>
glide-grid_BCL6

> <i_i_glide_lignum>
1

> <i_i_glide_rotatable_bonds>
3

> <r_i_docking_score>
-4.92970325881077

> <r_i_glide_ligand_efficiency>
-0.164323441960359

> <r_i_glide_ligand_efficiency_sa>
-0.510591139770576

> <r_i_glide_ligand_efficiency_ln>
-1.12008229382092

> <r_i_glide_gscore>
-5.19987125881077

> <r_i_glide_lipo>
-1.70767211913269

> <r_i_glide_hbond>
-0.464962781430017

> <r_i_glide_metal>
-0

> <r_i_glide_rewards>
-1.01573794375978

> <r_i_glide_evdw>
-33.2553977966309

> <r_i_glide_ecoul>
-4.50349187850952

> <r_i_glide_erotb>
0.33383297851395

> <r_i_glide_esite>
-0.00703772139426261

> <r_i_glide_emodel>
-47.9104346350136

> <r_i_glide_energy>
-37.7588896751404

> <r_i_glide_einternal>
2.84923768043518

> <i_i_glide_confnum>
33

> <i_i_glide_posenum>
383

> <r_i_glide_eff_state_penalty>
0.270168

$$$$
