/home/yujie/leadopt/data/result/selection/BCL6/lig_13c.sdf:1
                    3D
 Schrodinger Suite 2020-3.
 53 56  0  0  1  0            999 V2000
  -22.4049   14.0124   17.2579 C   0  0  0  0  0  0
  -23.2268   14.2643   18.5477 C   0  0  1  0  0  0
  -24.0826   13.0184   18.8472 N   0  3  0  0  0  0
  -23.4308   11.7152   18.9388 C   0  0  0  0  0  0
  -22.4725   11.4937   19.8686 C   0  0  0  0  0  0
  -22.0939   12.4362   20.7686 O   0  0  0  0  0  0
  -21.4615   13.6419   20.3432 C   0  0  0  0  0  0
  -22.4317   14.7328   19.8089 C   0  0  0  0  0  0
  -21.5999   15.9912   19.4553 C   0  0  0  0  0  0
  -23.3953   15.1471   20.9525 C   0  0  0  0  0  0
  -21.7685   10.2225   20.0469 C   0  0  0  0  0  0
  -20.8699   10.0951   20.8860 O   0  0  0  0  0  0
  -22.2063    9.2209   19.2149 N   0  0  0  0  0  0
  -21.5593    7.8986   19.3588 C   0  0  0  0  0  0
  -23.2071    9.3675   18.1968 C   0  0  0  0  0  0
  -23.5848    8.3155   17.3471 C   0  0  0  0  0  0
  -24.5173    8.5217   16.3304 C   0  0  0  0  0  0
  -25.0925    9.7772   16.1379 C   0  0  0  0  0  0
  -24.7841   10.8112   17.0195 C   0  0  0  0  0  0
  -23.8333   10.6211   18.0296 C   0  0  0  0  0  0
  -25.9699   10.0523   15.0809 N   0  0  0  0  0  0
  -25.9713    9.6287   13.7313 C   0  0  0  0  0  0
  -24.8764    8.9229   13.2159 C   0  0  0  0  0  0
  -24.8755    8.5366   11.8796 C   0  0  0  0  0  0
  -25.8913    8.8239   11.0382 N   0  0  0  0  0  0
  -26.9480    9.5284   11.5140 C   0  0  0  0  0  0
  -27.0306    9.9601   12.8541 C   0  0  0  0  0  0
  -28.1946   10.7298   13.2988 C   0  0  0  0  0  0
  -29.1151   11.3391   13.6469 N   0  0  0  0  0  0
  -28.2055    9.8447   10.3597 Cl  0  0  0  0  0  0
  -21.9263   14.9235   16.9006 H   0  0  0  0  0  0
  -23.0393   13.6561   16.4453 H   0  0  0  0  0  0
  -21.6238   13.2686   17.4096 H   0  0  0  0  0  0
  -23.9999   15.0011   18.3161 H   0  0  0  0  0  0
  -24.5624   13.1903   19.7197 H   0  0  0  0  0  0
  -20.9174   14.0263   21.2077 H   0  0  0  0  0  0
  -20.6900   13.4082   19.6066 H   0  0  0  0  0  0
  -21.1184   16.4189   20.3372 H   0  0  0  0  0  0
  -22.2211   16.7746   19.0190 H   0  0  0  0  0  0
  -20.8018   15.7730   18.7434 H   0  0  0  0  0  0
  -22.8550   15.5308   21.8180 H   0  0  0  0  0  0
  -23.9970   14.3098   21.3058 H   0  0  0  0  0  0
  -24.0855   15.9282   20.6353 H   0  0  0  0  0  0
  -21.0982    7.5986   18.4176 H   0  0  0  0  0  0
  -22.2989    7.1470   19.6335 H   0  0  0  0  0  0
  -20.7709    7.8583   20.1136 H   0  0  0  0  0  0
  -23.1528    7.3309   17.4432 H   0  0  0  0  0  0
  -24.7919    7.7003   15.6869 H   0  0  0  0  0  0
  -25.2514   11.7720   16.8685 H   0  0  0  0  0  0
  -26.6809   10.7345   15.3063 H   0  0  0  0  0  0
  -24.0116    8.6905   13.8153 H   0  0  0  0  0  0
  -24.0393    7.9937   11.4598 H   0  0  0  0  0  0
  -24.7977   12.9756   18.1333 H   0  0  0  0  0  0
  1  2  1  0  0  0
  1 31  1  0  0  0
  1 32  1  0  0  0
  1 33  1  0  0  0
  2  8  1  0  0  0
  2  3  1  0  0  0
  2 34  1  0  0  0
  3  4  1  0  0  0
  3 35  1  0  0  0
  3 53  1  0  0  0
  4 20  1  0  0  0
  4  5  2  0  0  0
  5  6  1  0  0  0
  5 11  1  0  0  0
  6  7  1  0  0  0
  7  8  1  0  0  0
  7 36  1  0  0  0
  7 37  1  0  0  0
  8  9  1  0  0  0
  8 10  1  0  0  0
  9 38  1  0  0  0
  9 39  1  0  0  0
  9 40  1  0  0  0
 10 41  1  0  0  0
 10 42  1  0  0  0
 10 43  1  0  0  0
 11 12  2  0  0  0
 11 13  1  0  0  0
 13 14  1  0  0  0
 13 15  1  0  0  0
 14 44  1  0  0  0
 14 45  1  0  0  0
 14 46  1  0  0  0
 15 20  2  0  0  0
 15 16  1  0  0  0
 16 17  2  0  0  0
 16 47  1  0  0  0
 17 18  1  0  0  0
 17 48  1  0  0  0
 18 19  2  0  0  0
 18 21  1  0  0  0
 19 20  1  0  0  0
 19 49  1  0  0  0
 21 22  1  0  0  0
 21 50  1  0  0  0
 22 27  1  0  0  0
 22 23  2  0  0  0
 23 24  1  0  0  0
 23 51  1  0  0  0
 24 25  2  0  0  0
 24 52  1  0  0  0
 25 26  1  0  0  0
 26 27  2  0  0  0
 26 30  1  0  0  0
 27 28  1  0  0  0
 28 29  3  0  0  0
M  CHG  1   3   1
M  END
> <s_m_source_file>
/home/yujie/leadopt/data/result/selection/BCL6/lig_13c.sdf

> <i_m_source_file_index>
1

> <i_lp_mmshare_version>
51139

> <i_f3d_flags>
0

> <s_epik_input>
W0NIM11bQ0BASF0oW05IXTEpQyhbQ0gzXSkoW0NIM10pW0NIMl1PYyhjMTIpYyg9TyluKFtDSDNdKWMzYzJbY0hdYyhbY0hdW2NIXTMpW05IXWM0W2NIXVtjSF1uYyhDbCljNEMjTg==

> <s_epik_cmdline>
J2VwaWtfcHl0aG9uJywgJy1waHQnLCAnMi4wJywgJy1waCcsICc3LjAnLCAnLXRuJywgJzgnLCAnLW1hJywgJzIwMCcsICctaW1hZScsICc8aW5maWxlLm1hZT4nLCAnLW9tYWUnLCAnPG91dGZpbGUubWFlPic=

> <r_epik_Ionization_Penalty>
  0.5200

> <r_epik_Ionization_Penalty_Charging>
  0.5200

> <r_epik_Ionization_Penalty_Neutral>
  0.0001

> <r_epik_State_Penalty>
  0.5279

> <r_epik_Charging_Adjusted_Penalty>
1.04786

> <i_epik_Tot_Q>
1

> <i_epik_Tot_abs_Q>
1

> <s_lp_Force_Field>
OPLS3e

> <r_lp_Energy>
66.8991

> <b_lp_Chiralities_Consistent>
1

> <s_lp_Variant>
/home/yujie/leadopt/data/result/selection/BCL6/lig_13c.sdf:1-2

> <s_i_glide_gridfile>
glide-grid_BCL6

> <i_i_glide_lignum>
2

> <i_i_glide_rotatable_bonds>
2

> <r_i_docking_score>
-4.71322275839767

> <r_i_glide_ligand_efficiency>
-0.157107425279922

> <r_i_glide_ligand_efficiency_sa>
-0.488169298203038

> <r_i_glide_ligand_efficiency_ln>
-1.07089556538309

> <r_i_glide_gscore>
-5.24111875839767

> <r_i_glide_lipo>
-1.88132967052547

> <r_i_glide_hbond>
-0.267198792458581

> <r_i_glide_metal>
-0

> <r_i_glide_rewards>
-0.941300071168113

> <r_i_glide_evdw>
-33.2821464538574

> <r_i_glide_ecoul>
-4.71254301071167

> <r_i_glide_erotb>
0.219698550054112

> <r_i_glide_esite>
0

> <r_i_glide_emodel>
-49.1726024792908

> <r_i_glide_energy>
-37.9946894645691

> <r_i_glide_einternal>
5.25252437591553

> <i_i_glide_confnum>
4

> <i_i_glide_posenum>
159

> <r_i_glide_eff_state_penalty>
0.527896

$$$$
